68
CSD_code = IKIDOX | q = 0 | S = 0 | Stoichiometry = C22H40ClIrO2P2 | MND = 5
Ir        3.23360424135552    2.11669168952725    3.68178868686851
H         2.10856423487180    2.60526532166287    4.57201773684790
P         4.01980403847640    4.26741214285646    3.31608994508312
P         2.19432468251499    0.07778700544694    3.30498573784417
Cl        4.80737141427794    1.42543853318877    5.30321802889413
C         5.80471459398214    4.35407761693967    2.71351987689525
C         5.95912542288912    3.04680135220867    1.92923009612596
H         5.23064367172964    2.98580675976456    1.11826281065571
H         5.83066508149636    2.19630588439240    2.59879457461515
H         6.95535372698523    2.97389251502895    1.49317132608189
C         6.75148369006198    4.33044577004010    3.90782454985426
H         7.76838026240121    4.12634452168411    3.57322192903624
H         6.45889167452958    3.54755214002399    4.60661573933669
H         6.75627409880008    5.28389061096973    4.43102528250843
C         6.09102021974194    5.52880520058359    1.78261505274976
H         7.04054571782313    5.36135323128603    1.27424678147375
H         6.16415873980181    6.46710375505897    2.32265826617315
H         5.31316938052161    5.62035899642129    1.02739457934297
C         3.56283074311995    5.68981876479690    4.45909846650684
C         4.00826698986053    5.31370198501302    5.86934930898034
H         5.09040641228464    5.32278907107508    5.96374990372859
H         3.65450445304613    4.31384245492107    6.11688769112317
H         3.59763808254979    6.01637586096336    6.59261344498024
C         4.14207324773133    7.03337864190394    4.03010599434301
H         3.93313542849264    7.21974577598890    2.97884863053576
H         5.21503914948346    7.07766691863049    4.19859158896508
H         3.68179350702913    7.82916710491423    4.61509805813873
C         2.03513849075159    5.76603264546471    4.41553189308245
H         1.67697854179382    6.47544381343464    5.15933629397054
H         1.59920766910550    4.79016437039569    4.62795859307613
H         1.69183616493718    6.09057702197329    3.43595326812736
O         3.23673796266450    4.72494890340393    1.95849877962707
C         2.22987206241428    2.55869825095417    2.00291091067181
C         2.41836953491339    3.77922301800814    1.36105780167064
C         1.83463712439180    4.05142136512265    0.13402856290960
H         1.99636422012622    5.00772714305707   -0.33835562354571
C         1.05319848779045    3.07814719781693   -0.46817035032744
H         0.59071953630463    3.28223917436614   -1.42123079381379
C         0.87286746469464    1.83972948236374    0.12708254257529
H         0.28481545829535    1.07178271040082   -0.35070113960881
C         1.46720522263569    1.59192140609504    1.35419600629224
O         1.33219096897465    0.34524303506534    1.94454238324287
C         3.34596905899689   -1.28912623353017    2.70318683114052
C         4.41858298279027   -0.51175331292721    1.93304207177820
H         4.95541515352013    0.14960107928597    2.61308645793300
H         3.97605963952320    0.07544847068944    1.12584545122054
H         5.14740309609541   -1.19256847125800    1.49345310826835
C         2.68373112186402   -2.28953225992485    1.76025416199157
H         3.45437828038703   -2.87539360691923    1.25928904360305
H         2.10070012955787   -1.77440301706657    0.99965866492054
H         2.03380090551203   -2.97856212336182    2.28962771067735
C         3.99547894141728   -1.97753547782809    3.89799269965600
H         3.29406043302530   -2.63188316158050    4.41046471843154
H         4.36642751674757   -1.23658847049670    4.60523956973800
H         4.83809856666853   -2.58360907536984    3.56577249148521
C         0.83548909097618   -0.55777633568883    4.44016025910204
C         0.24222030672217   -1.89171833976009    4.00039147574151
H        -0.65707989814468   -2.09671728077461    4.58056204864883
H         0.93640250088721   -2.71163036137552    4.16613092558428
H        -0.03238442303618   -1.85751098301497    2.94825504905951
C         1.40856421250307   -0.63863277033692    5.85216530974476
H         1.90535189738754    0.29673228888110    6.10599987158901
H         2.13277756092481   -1.44282684793886    5.94561442854808
H         0.61046120408821   -0.81426857535011    6.57165115820770
C        -0.25655382776395    0.51339439331618    4.39941499955253
H        -0.72239365336996    0.55385712601853    3.41751455198744
H         0.16349035241724    1.49379192806690    4.62256335427947
H        -1.02497296522354    0.28909225511626    5.13700037132210

