26
CSD_code = IKIGEP | q = 0 | S = 0 | Stoichiometry = C5H9B7FeO4 | MND = 8
C         2.75528803144803    9.03376846188010    6.60991379837476
O         2.30711819975732    9.80058678967518    5.55050112606142
H         3.05402720770431   10.16924288771460    5.06800220553248
Fe        1.45876725817726    8.21084560440278    7.68674007723941
B         2.91694876949887    7.40894052646531    6.62143583506337
H         2.85077570707218    6.89003787553688    5.57085342497060
B         4.22087231826129    8.71932547020559    7.08854565109943
H         5.11737745454840    9.18700753166035    6.48222980875628
B         2.86418913876668    9.51395408698828    8.16693736308631
H         2.75573389009823   10.66884634436095    8.34515545891815
B         2.52185585735245    6.61592188829318    8.13676077383576
H         2.17342638120204    5.49508936631383    8.19000687001055
B         4.24892104188919    7.08028887539963    7.76358264685379
H         5.14427228058107    6.34103006019501    7.58038979253862
B         4.21135679898220    8.56666427806340    8.85477303865208
H         5.07730342022269    8.99165822559473    9.52650970637434
B         2.47929955414937    8.29271346881680    9.36836760068032
H         2.09710660304945    8.56628506351588   10.44523886943026
C         3.58750780541010    7.11617650866462    9.25044718673554
H         3.94498191880732    6.51879230984944   10.07622337834395
C         0.43202508973969    7.63263963548490    6.42787453437587
O        -0.26527093505983    7.25813990852730    5.60336151932288
C         0.38391630946207    9.55108990753927    7.83440392542426
O        -0.34452702579100   10.42667473327073    7.92934319966298
C         0.75813576627607    7.27145140969297    8.94556060804254
O         0.08219115839461    6.70442878188827    9.69434160061438

