120
CSD_code = IKITEC | q = 1 | S = 0 | Stoichiometry = C46H70P3Pd(1+) | MND = 4
Pd        3.42039639075073    2.13391013875032    3.89071591853224
H         3.98852074374030    1.06137548596434    3.04938580899091
P         2.55730828453306    0.30672571675360    5.04249081681605
P         2.55727671620758    3.86543663549726    5.23739524538834
P         4.46363507948389    3.40156124798614    2.23548112557787
C         1.67892756097546    0.52315371834715    6.66881873997998
H         0.71331036431474    0.96571347130259    6.41185860354796
H         1.49176655600822   -0.48040219901948    7.05612962098237
C         2.33117953020577    1.36040483870304    7.73023335545948
C         3.00258486368093    0.73251283931211    8.77714103067137
H         3.06519465767529   -0.34540470241578    8.79878834837786
C         3.57733918584040    1.44928438621388    9.80852933318858
H         4.10042288811643    0.93201931706032   10.59748986174885
C         3.45396083410138    2.82670669505703    9.83169389468185
H         3.88120737696003    3.40216801806716   10.63764267960043
C         2.75427081363501    3.46041756022442    8.82453608547983
H         2.62257409867847    4.53099073882801    8.86798588025366
C         2.19749159534625    2.75180782577156    7.76330307095133
C         1.46302023677124    3.52367494159832    6.71017744896092
H         1.15992959286918    4.49723035513134    7.10684052104121
H         0.56480438913315    3.00481982667699    6.36783754892334
C         3.97576451894971    4.55081799647703    6.14448954628322
C         5.11475178690689    3.74985134590554    6.16000877427396
H         5.12460862784070    2.82913562776009    5.56508823403109
C         6.21516325896381    4.10697652635364    6.91812725093820
H         7.09168213453097    3.47653465383664    6.93272395144961
C         6.18797726310228    5.27937711567381    7.65459777869864
H         7.04592125326073    5.56737814733952    8.24225567108169
C         5.05686559683991    6.08031554884410    7.64574689774147
H         5.03589562972206    6.98927514128118    8.22815736594404
C         3.94611490546188    5.71385753788948    6.90747888752738
H         3.05700614694217    6.32860129837142    6.93289162787650
C         1.61114799566991    5.26766776683198    4.54960492468755
C         2.12107545820562    6.54978120485720    4.38036516690417
H         3.12596319675954    6.78559688125511    4.69995956011469
C         1.34096227349022    7.53922317868799    3.80621470989378
H         1.74444599225624    8.53368130703665    3.68511309091894
C         0.05055790764653    7.26022162515179    3.39023017942787
H        -0.55257973187491    8.03473908337334    2.94261405447327
C        -0.46334159640471    5.98314565971752    3.54947693734442
H        -1.46900329403536    5.75977550122054    3.22647073770220
C         0.31288742237201    4.99386120603279    4.12115507384316
H        -0.08812510518386    3.99413179600410    4.23030557102893
C         3.90684939371016   -0.97347840934903    5.41632858603870
C         4.99469763809094   -0.12272876109421    6.08364519484216
H         4.62144507889909    0.39770543872470    6.96487944127395
H         5.36606474721524    0.61685142056282    5.36408006978766
H         5.83255563614889   -0.74791215781652    6.38655727512486
C         3.46470329487294   -2.11375230439352    6.33047925421506
H         2.63552388962686   -2.66952196647415    5.89863186137597
H         3.18229111953809   -1.77042478934406    7.31988582871389
H         4.29626952636733   -2.80610723582994    6.45261288867283
C         4.50813959822458   -1.59323241990198    4.15362002095465
H         5.46617835736019   -2.04508722985658    4.40566890534091
H         4.69066482158715   -0.84428615908389    3.38403890622720
H         3.87384440427037   -2.37320285759359    3.74500384236390
C         1.11733580559085   -0.35338110995197    3.99715842751147
C         0.16591409091827   -1.29941588336829    4.72897052747484
H        -0.58014159322119   -1.65953530450862    4.02195910501865
H        -0.36476072777283   -0.81308798520579    5.54292043803297
H         0.68961383842278   -2.16642614417786    5.12303053417053
C         0.36925241265207    0.91660635823745    3.56938420059360
H        -0.41413101647871    0.67077421812265    2.85396262532054
H         1.07059583541569    1.62066858048667    3.09211643908127
H        -0.10485977358108    1.40831507961479    4.41876583792773
C         1.63247354241611   -1.05261660263569    2.73897609952474
H         1.96056327438314   -2.06387632107258    2.95888942522407
H         2.45878765130394   -0.50178365070927    2.29062021314323
H         0.83214101098389   -1.11985616296902    2.00354995283992
C         4.89697150579981    5.19556238698958    2.53433580206466
H         4.06860524884921    5.53871741930684    3.17047266633547
C         6.18669781729207    5.33411462383570    3.34446921904406
H         6.17237232031011    4.65225394463824    4.19757037804098
H         7.04393783893991    5.08551540614765    2.71755547071824
C         6.35190813778798    6.77052064137047    3.83252457631566
H         5.52445619231218    7.03082757207445    4.49707866621129
H         7.27439922948698    6.85737966370097    4.40940126871131
C         6.38422037434025    7.72626443470901    2.64422757557392
H         6.46367621024487    8.75616877215422    2.99492437256547
H         7.26527135309124    7.51434077092498    2.03459677091326
C         5.12896519947741    7.56462934223315    1.79281295844255
H         5.18289883662726    8.22524869871983    0.92589334820799
H         4.25202946648743    7.85399869916369    2.37714938788284
C         4.96050187590899    6.12018528108344    1.31766165578782
H         5.80235540873618    5.85130921964627    0.67952495238351
H         4.04897725969582    6.05803721578267    0.72309677822792
C         5.94368372644897    2.50671710349237    1.54991952630262
H         5.49790338170444    1.58748666071776    1.13966372953559
C         6.89667651109638    2.06449171459424    2.66288785567927
H         7.43038081859549    2.91996373805322    3.07621123470465
H         6.32033687247837    1.59777467710337    3.47488277957045
C         7.91230301240069    1.07483927663836    2.09818071793087
H         8.60130330369930    0.76111457094178    2.88409415565128
H         7.39427058154338    0.18527102908401    1.73207513736918
C         8.68960414506463    1.71947868122725    0.95304237138055
H         9.26387492251087    2.56536527276039    1.33753380061388
H         9.39593067642792    1.00116981673622    0.53519579682485
C         7.74251851473952    2.20539555833828   -0.14119532060094
H         7.22268121247445    1.34970869843324   -0.57835879188885
H         8.31248070935204    2.68936482171151   -0.93579441704947
C         6.71695759910994    3.18848344033670    0.42516844970534
H         6.03836464588733    3.50934119593955   -0.36814581500128
H         7.24442680161042    4.06533855583729    0.80204334818049
C         3.26140164925571    3.46802842893697    0.82005773392072
H         3.69962713518850    4.04760865534305    0.00012451967816
C         1.99360904421235    4.15038058163199    1.33957939619116
H         2.21242691150834    5.16034507136738    1.69309071470822
H         1.62465223417569    3.56957013495092    2.19945494075391
C         0.90683169372644    4.21459394879195    0.27263011740630
H         0.01792667449408    4.69175148381358    0.68965519559014
H         1.25438581936417    4.82924733470090   -0.56063075803150
C         0.57004512152377    2.81708277053979   -0.23396110320127
H        -0.18294133050518    2.87669475332511   -1.02045879567375
H         0.15485413663378    2.22363647116365    0.58379369676158
C         1.82735149956330    2.14001897953184   -0.76720569416962
H         2.20621833558187    2.70169341594302   -1.62367914491188
H         1.59253303223105    1.13075783993971   -1.10946581360638
C         2.90640356828059    2.07099138320141    0.31084046496469
H         3.78677115658035    1.57604491052487   -0.10305680658364
H         2.53598635050472    1.47361428553933    1.15424409775712

