64
CSD_code = IKIXEG | q = 1 | S = 0 | Stoichiometry = C24H37NOsP(1+) | MND = 9
Os        8.55259406063112    1.96518057222986    2.60540567352531
P         6.26932543834060    1.76336912256498    3.43519186423877
N         8.11002218457802    3.36437803055112    1.16212007213799
C         7.53274795304692    4.53468462295317    1.46395373884007
H         7.14172676702826    4.62691374229475    2.46565870783560
C         7.41262659929062    5.58182278013313    0.57507931141895
H         6.93664644188274    6.49711196467533    0.88608470805052
C         7.91112246901102    5.42924560241978   -0.71101075691965
H         7.82831737126556    6.21997519288927   -1.43858732296925
C         8.52695128340078    4.23180998267989   -1.02741183440720
H         8.94520246771894    4.06600123636363   -2.00747679389783
C         8.62263535035874    3.22635838503680   -0.07516952767374
C         9.33743339097020    1.94357177047678   -0.37086377833060
H        10.39702720548665    2.15936077072218   -0.54084967506018
H         8.94905795547812    1.50272924090849   -1.29557930983983
C         9.18927901763137    0.96866453503512    0.76829497038512
C         8.02175292471532    0.31944644953356    1.26251527565743
H         7.03835624323391    0.31883405312508    0.80334727967386
C         8.79644072060204   -0.96971201769380    1.53033537632268
H         8.88453838524409   -1.29610655990743    2.56425004324203
H         8.44469277684796   -1.80664288464079    0.92935731078388
C        10.04085860646789   -0.27810762381374    0.93849725561520
H        10.93410721781471   -0.23109422492198    1.55552624947660
H        10.31781252676192   -0.69217095895732   -0.03061959019109
C        10.23558568006810    3.40262346039182    3.34112580787784
H        10.46257958891135    4.36801366655169    2.91551383590221
C        10.81456108266791    2.17494379355975    2.95586858305875
H        11.61631294813471    2.06314934527416    2.24323214165701
C        10.36876507058380    1.16991325721680    3.86801882062509
H        10.75330996172727    0.16472568341551    3.93981148189501
C         9.47060493673384    1.76763415517632    4.76168667347749
H         9.07336830109429    1.30687044669195    5.65324612396883
C         9.35937936720567    3.15774116115130    4.41469365222213
H         8.89181272217305    3.91633989739112    5.02288146528418
C         4.88858607419062    2.48979786712135    2.37908498824327
H         5.04530387363409    3.57103363379235    2.46832691190429
C         5.02671311587109    2.14874107585713    0.89524246016113
H         4.72715696395515    1.12503376081581    0.69128839302997
H         6.04694181330971    2.29312768549847    0.54820408478281
H         4.37602580091297    2.80139503804545    0.31579659992441
C         3.46842267034488    2.17861870900500    2.84712573232388
H         2.76454146999627    2.62270804590431    2.14508602317466
H         3.26068078473894    2.60150079150051    3.82431967636539
H         3.27497797361608    1.11078918659081    2.87714140786752
C         5.69335074869937    0.04736531382828    3.91938559243111
H         4.76490931888737    0.21266398441509    4.47454975038036
C         5.37900087289216   -0.91573736653902    2.77905122350686
H         6.28241267280565   -1.25125915761863    2.28442517739779
H         4.71257025155104   -0.47781506547597    2.04334577738427
H         4.88183595274255   -1.79150610025187    3.19346270297591
C         6.73362695835381   -0.58469958962345    4.84148284921707
H         6.41527160651739   -1.58498427648201    5.12735040660655
H         6.88133997233452   -0.00769144573204    5.75044838000217
H         7.68885961053558   -0.66535325300755    4.32683083985284
C         6.05813845357650    2.64272304045320    5.10697867044699
H         7.01638558953966    2.45956786689128    5.60469182217438
C         5.90622225271744    4.15514254994781    4.94987140467200
H         4.94214129172158    4.41686200016902    4.52156537423391
H         6.69524123073492    4.58010942376077    4.33461064633393
H         5.96853307205228    4.62710063714026    5.92911324684213
C         4.96955876461005    2.13908522937709    6.05836626123832
H         4.99569944212501    2.75884143270431    6.95378256715042
H         5.12920578713941    1.11430469494082    6.37713450935581
H         3.97329059278531    2.22305563549147    5.63750868613611

