54
CSD_code = IKIXEH | q = 0 | S = 0 | Stoichiometry = C25H23IN4Pt | MND = 6
Pt        6.03727925465673    1.33049598092794    3.82232974384124
I         7.34870425083332   -1.01786470632647    4.27190117562788
N         5.86349601485026    1.39333894066059    6.03879398286183
N         7.84168635582801    2.60049987721639    4.51974866324017
N         9.25423253830579    3.62912360178594    1.46279778616921
N        10.75663129261693   11.34358927603640    7.24382751404584
C         6.28602884042662    1.32574014233391    1.77516796467316
H         6.83034269968112    0.42729962372210    1.47668844372525
H         6.86920367110810    2.20196343754636    1.48424826992527
H         5.35314241409776    1.35551022003465    1.21163648048714
C         4.20715446474910    0.42463689087002    3.54564172869752
H         3.77216673357096    0.57488335037516    2.55891402376464
H         3.51941281888229    0.84085337794930    4.28717454053070
H         4.31523710979650   -0.64886534903361    3.70832968404546
C         5.08221757122715    3.15026108120021    3.59120488858414
H         4.20373135838349    3.11814369415213    2.95035661427008
H         5.77459685586104    3.88218949509858    3.16977222330211
H         4.77004030831458    3.50508741116967    4.57763884178704
C         5.15709824216743    0.55753760518612    6.78681308065997
H         4.45569264114813   -0.08032702423966    6.26658013318488
C         5.30387267641176    0.47268460300050    8.15973248764257
H         4.70891068745450   -0.22534911551025    8.72570671400405
C         6.24197179912075    1.28609163920166    8.77717604340398
H         6.40237490570700    1.23514427804021    9.84337069018459
C         6.98296453085507    2.15489183052149    7.99804454357715
H         7.74555070942504    2.77596389140120    8.44056558335360
C         6.76227666536470    2.18894781343836    6.62193007089102
C         7.55616713264304    3.06514537467895    5.74423558081216
C         7.99165823335399    4.30493664095390    6.19492371268877
H         7.69044680930025    4.65906695222324    7.16834411326639
C         8.75034465339060    5.11601940845313    5.35373941038295
C         9.09825237825904    4.59266086224514    4.11448214314036
H         9.72750247442685    5.13361092625193    3.42660969090978
C         8.64901280320135    3.32845973149968    3.74456768571754
C         9.13151285375150    2.76724574273337    2.47150575400995
C         9.50547479489807    1.42982088177238    2.37009854102746
H         9.44363563630317    0.77602765924848    3.22337409438605
C         9.96920380505954    0.96810555293297    1.14974423708931
H        10.25489327676597   -0.06680182933171    1.03553554940634
C        10.05471945998120    1.85351632053350    0.08764743679356
H        10.39907924352784    1.53264605819979   -0.88287767374312
C         9.69659418828466    3.17705449661808    0.30588290271863
H         9.76497351527379    3.91482985220762   -0.48325729480213
C         9.18205644124644    6.45674451065224    5.76503287903460
C         9.18954661440902    7.50339488261578    4.84272070722757
H         8.85827974690044    7.32463206946318    3.83085145406157
C         9.59083976316327    8.76812394413725    5.21885380446736
H         9.58967269904498    9.57936610754646    4.50622944276245
C        10.00276606729527    9.00286393535454    6.53141720288869
C        10.00481910909890    7.96063899145617    7.45926911560203
H        10.33081789543370    8.14729701794755    8.47174611803177
C         9.59275838237603    6.70171143177018    7.07523788552327
H         9.61401195259332    5.89354011268608    7.79132333184829
C        10.41894265917498   10.29627049838002    6.92367025827300

