54
CSD_code = IKIYAE | q = 0 | S = 0 | Stoichiometry = C25H23IN4Pt | MND = 6
Pt        7.92755805315627   11.15559379098306   13.49243487480753
I         6.56231811535189   10.57837594588825   15.78076551950294
N         7.72862230839487    8.97729788515212   13.09252621036015
N         9.89219077632481   10.22310849844688   14.28120784917279
C        10.98371091519879   10.88902698116783   14.66559528861721
C         7.65095088221927    6.21291939839628   13.14737450342839
H         7.62013505774640    5.13453513667306   13.18291756880502
C        11.30882343521184    8.55322491858483   13.31286045945178
H        11.38874038832768    7.63041490612471   12.75992594345147
C         9.90113531308693   12.12505021589980   16.54249585295608
H         9.26175039221961   11.28077954774681   16.73674898248247
C         9.00320944098742   11.48014163425832   11.75568666173113
H         9.06716076688533   10.53622000848915   11.20672691181936
H        10.01812604853111   11.80110959888257   11.99988153530552
H         8.57059016994487   12.22661457495214   11.09315960313243
C         8.83197750034191    6.88832853889011   13.39244145482234
H         9.73142696845389    6.34927267573462   13.64445293744922
C        14.12952456734500    7.48831097565979   13.28350519918766
H        13.41111210117759    6.76856594530581   13.64717037901203
C        10.05718414704081    9.04971058814284   13.65430125179543
C        12.26848737755867   10.47123704699010   14.33184100668473
H        13.10241346683853   11.07329603718284   14.65410104609025
C         6.59536452740699    8.32848877534406   12.86537866212377
H         5.71962262700129    8.93637402306196   12.68321659186966
C         8.83784302679724    8.28179939744764   13.35133690539183
C        10.83898829238264   12.08369617662970   15.51409786312822
N        11.69856057483303   13.07479369257800   15.28118388550277
C        13.78741666495574    8.83899788002941   13.22142015091803
C         6.50723957115820    6.94795023091954   12.87414058065801
H         5.56230687166096    6.46452198285095   12.68720246080094
C         6.23241357873741   11.67402373253678   12.44154520691302
H         6.15724322134071   10.99439976372988   11.58788012883903
H         6.22997614529871   12.69459818855835   12.06237015724004
H         5.36110034454766   11.54986611474148   13.08630723587383
C        16.32956408389429    7.99367336098568   12.46870430234392
C        12.44959764652440    9.29269048069418   13.61828329439100
C         8.20869866010418   13.15498737093586   13.91194564105365
H         7.79408318080807   13.83161683414768   13.16424084305682
H         9.27990121593860   13.35788661819952   13.97569335054727
H         7.74891710484770   13.39375634975610   14.87334254640145
C        15.38955016067656    7.06446710146279   12.91602997194996
H        15.65625612440976    6.01952302187951   12.97260788593760
N        18.66440775028433    7.20659575518850   11.77352097678872
C        14.73589815376259    9.76149097828363   12.77901540887179
H        14.47291119755760   10.80653559736865   12.71350350650855
C        15.99555024128212    9.34697840107618   12.40037104319191
H        16.72682413128229   10.06062089848558   12.05122576596632
C         9.82209670658212   13.27224689190600   17.31392432196981
H         9.09549872072319   13.34049268428578   18.10960852294934
C        10.68474455366418   14.32184030659361   17.04253569778768
H        10.64804775996499   15.23813142909094   17.61044176545016
C        17.62034745519512    7.56187149075854   12.08480103364731
C        11.61370283963651   14.16146054452886   16.02320135564493
H        12.32547867439269   14.94118907639401   15.78420189621836

