50
CSD_code = IKIYIL | q = 0 | S = 0 | Stoichiometry = C20H23ClN2O3Pd | MND = 4
Pd        9.82761775005286   10.78976328442524    7.32753981688983
O        10.50073728939906    8.64184416766050    6.77340959950586
Cl        7.70327961722617   10.20860456207331    7.69800264881137
N        11.73788017087700   11.07855555272384    6.95437300828983
C         9.52837611620657   12.70784559964144    7.66459377041044
N         8.46985614955998   13.02813175895606    8.42887472004621
H         7.73611919944092   12.32332788815247    8.50809959526084
C        10.31437862133096   13.67063044346846    7.08437642100135
H         9.95148977003329   14.69428611691258    7.08852697817029
C        11.58743457286575   13.52465769226541    6.46795956773461
O        12.17346752429452   14.44497069983134    5.89811774909105
C        12.33832900260051   12.21905413304302    6.61015989332613
C        13.71593033005613   12.27069968607415    6.39410475658770
H        14.13984439434283   13.21799645014302    6.09896249253287
C        14.48120102949895   11.13800303234347    6.57592897325024
H        15.55192803595391   11.16131772186642    6.44523239010918
C        13.84185959597217    9.95833616039588    6.93232872963936
H        14.39364937465144    9.04683908352400    7.09950787384414
C        12.46464002493600    9.96087049109637    7.07971630243751
C        11.73727676401396    8.66866144195619    7.47727154117192
C        12.68385874926208    7.24865258768961    5.80104715205257
H        11.74653446209705    6.96234570886722    5.31750985942121
H        13.38082111860105    6.41444852369904    5.76670534764877
H        13.10519352459666    8.10668068569576    5.27079882145338
O        12.49527450756936    7.52470771431183    7.18122447339738
C        11.53185439996078    8.69471681799746    9.00408643830992
H        11.17393743346526    7.72714567736060    9.34607972401661
H        10.79639274342614    9.48057902968899    9.25545905248003
H        12.47891632829014    8.90860894036957    9.49227116142568
C         9.64819994061441    7.53938559374369    7.08596367765907
H        10.23436666449236    6.62635593346434    7.21335584540855
H         8.97286794379487    7.43356779483538    6.23661027256574
H         9.05927342521566    7.73608539845839    7.98743163260960
C         8.17131515207288   14.30327778348693    8.94536846001579
C         9.09188301282348   14.98050121196929    9.75073039780841
C         8.73458076464229   16.22239797190905   10.26011048059206
H         9.43957089510596   16.75802933699797   10.87888700860407
C         7.49484192076965   16.77201747036863    9.99522394817459
H         7.23533105285940   17.73911353487525   10.39891872585475
C         6.58154439146556   16.07810208498956    9.22002348963437
H         5.60981481892776   16.50509091415442    9.01967529437525
C         6.90338223316512   14.84002360530291    8.68913379503762
C         5.93388752043538   14.07871566948228    7.83800800695314
H         5.06316729899486   14.68806106012232    7.61153663292716
H         5.59669366506752   13.17656820400097    8.34987570727554
H         6.40199084855864   13.77246975271302    6.90337825017499
C        10.42393184547486   14.38405446776456   10.08655029663785
H        10.36336402180171   13.29621308330803   10.13338302167505
H        10.77449313131123   14.76374816043190   11.04342611234716
H        11.16102085183463   14.64073931537654    9.32484008535121

