68
CSD_code = IKIZAD | q = 0 | S = 0 | Stoichiometry = C15H47P3RuSi2 | MND = 7
Ru        9.39537295565204   13.12036891976517    3.74062383812621
P        11.25787634633335   12.53338621810683    2.53951203070107
P         9.29712970482611   15.28863019633991    3.00530721926008
P         7.83106501249989   12.24559476230819    2.31931762614266
Si        9.16497885717413   12.49776512741689    6.15067497510202
Si       10.82433493682534    9.70293839658451    6.91165155052026
C        11.46833169520008   10.75347959936804    2.12274417680603
C        12.87631312976247   12.78976677575782    3.36951392783564
C        11.67471264087354   13.25154415982134    0.88769238439117
C        10.81144496263921   16.31602983532245    3.20057560316148
C         8.84986560794102   15.77848742848986    1.28020884801122
C         8.13159776232121   16.37570956751431    3.91509606321907
C         8.06345428735137   12.10876086543331    0.49083115619811
C         6.16461361181445   13.02656266965200    2.32588798659352
C         7.30737498239435   10.51851732406962    2.65825150349065
C         8.93720668077652   14.02739026320159    7.30991322916254
C         7.64160801172741   11.40371634851593    6.59515658297519
C        10.72349292407730   11.60549768065479    6.88658874741924
C        10.01583818971603    8.82148893438083    5.41809655883406
C        10.02187897825627    9.03388841409723    8.51051915852351
C        12.67596536747976    9.20531568699146    6.92117936850683
H        12.37069473802877   10.59596852098572    1.53084684433546
H        10.60142578965787   10.39498746484371    1.56871010507804
H        11.53789916919085   10.19532126342523    3.05615203141750
H         8.07971981571711   13.57589449666791    4.43926641808407
H        12.85274770024216   12.24783935777166    4.31475892886681
H        13.01291454096898   13.84902903555506    3.58369544393544
H        13.69889295784055   12.42636210458726    2.75208140783716
H        10.46061780482669   13.79982453743891    4.65594444439942
H        12.60787554132061   12.82724217396863    0.51654622978044
H        11.78243331440746   14.33180371114855    0.97500756535832
H        10.87443459132863   13.03639822932108    0.18112534448792
H         9.55570890768526   11.62179450882698    4.10445490221525
H        10.64196866424464   17.33191226300620    2.84176370988062
H        11.64163927284629   15.86978375723442    2.65498935775858
H        11.06602569935653   16.33553238442482    4.26000823140873
H         8.85084043399520   16.86439401949362    1.18356902530403
H         7.85733355400458   15.39819657440432    1.04158632870211
H         9.56495769970576   15.35268892980935    0.57783101625296
H         8.37230978847661   16.30026478334089    4.97528680879576
H         7.11294287384459   16.01807270942421    3.76762391663634
H         8.21293203816950   17.41163033120066    3.58285937199966
H         7.18640362688485   11.65296128873939    0.03065772047323
H         8.93804768569496   11.49329700505653    0.28274220949343
H         8.22203681293400   13.09834419272754    0.06430206939299
H         5.76297838586771   12.94784523423498    3.33592000940327
H         5.49565769047562   12.52994355600139    1.62211026457927
H         6.24643535112861   14.08215689352648    2.06988418625518
H         6.99970735738867   10.46483287837666    3.70205659822480
H         8.15293953811278    9.84669364330649    2.51348524787534
H         6.48408400053408   10.21977138547495    2.00793732671116
H         8.89091754293099   13.71152714027738    8.34766852599235
H         8.01977932678498   14.56355497957073    7.08777117563344
H         9.76016578093459   14.72840889824273    7.21308284328943
H         6.71557509948445   11.85890600875537    6.25675183034462
H         7.57339089441908   11.27953665383373    7.67095013196650
H         7.71067649023955   10.41706447061060    6.15163262828699
H        11.59463491192006   11.98480837386379    6.35413336210105
H        10.83484204700403   11.95204662374922    7.91335455138026
H         9.08588061992785    8.33705855960747    5.69852403288338
H        10.66518255317134    8.05925507051707    4.99731033088889
H         9.78591244197667    9.53423269136617    4.63293594932514
H         8.97545441798182    9.31373295085775    8.57083093274098
H        10.51733774885837    9.42635749178477    9.39298743757632
H        10.07701672202911    7.95038249159153    8.55932127986163
H        12.79938710537532    8.13274806614973    7.03853270651900
H        13.20828734519868    9.68563431939161    7.73625077441555
H        13.16959696124273    9.49161880169577    5.99671590685427

