72
CSD_code = IKOBOA | q = 0 | S = 0 | Stoichiometry = C32H32BF2O2P2Rh | MND = 6
B         7.11837321610230    3.26302214883767    8.58731056464378
C         6.51806333518980    2.38869814001094   13.51537258319737
C         7.31273819896258    1.79958366284058   14.66180136649469
H         6.94123685061151    0.79706357614942   14.87497940220453
H         7.14001025703500    2.40127637628284   15.55650489117024
C         8.82640208273998    1.76722301038986   14.37787955738661
H         9.26712819677249    2.71231244046050   14.70603721016856
H         9.30045419001252    0.97176204291488   14.96329537735205
C         9.16524575025020    1.57751111609340   12.91733080224114
C         8.57771898344104    0.64845450127741   12.07640191995263
C         7.53520085621050   -0.35375327715372   12.51388243135005
H         7.68021760480197   -0.59729788811231   13.56694907064168
H         7.67169680397624   -1.27587554036625   11.94612255808084
C         6.10945680221828    0.16677092868478   12.26114066255768
H         5.84986831402212   -0.02444078132121   11.21680576708514
H         5.39057538776532   -0.37578992797993   12.88488269021568
C         5.95440777196973    1.64827497378687   12.49258875119498
C         7.26159812286074    6.02977156234528   11.27518554471201
C         7.29631830890607    7.05436549730795   10.34146751305327
H         6.91528781730245    6.86905838036528    9.34787305326383
C         7.82582657905085    8.28442673510026   10.68894249355031
H         7.86128979071475    9.08148677192138    9.96075555941293
C         8.30724434916321    8.49694229939706   11.97011732475924
H         8.71566198954802    9.45979307170180   12.24011677752927
C         8.27499357440267    7.47425908172705   12.90451593537776
H         8.65882606213644    7.64052704865137   13.90088263458931
C         7.76208601592035    6.23970909281038   12.55410643824775
H         7.75909978115890    5.41779115586105   13.26177591669730
C         4.80628963675023    4.65653315446506   11.33526866361198
C         3.82016539919512    4.08139431430752   10.54155628260262
H         4.11397973693453    3.54732424694943    9.64919694685478
C         2.48699338593820    4.20648888648078   10.88812193612977
H         1.72406657796671    3.76332153054732   10.26498498901045
C         2.13108506468343    4.89833945768033   12.03448640719647
H         1.09036415321778    4.99665561593804   12.30634194734286
C         3.11086703893185    5.46843837742251   12.83117259754223
H         2.83356693090662    6.01244171344709   13.72264245706334
C         4.44496986466718    5.34550458525947   12.48651606521276
H         5.20783877487222    5.80236856028958   13.10155951499707
C        10.65155244693800    2.13034177785940    9.76791788643269
C        10.45531275675209    1.09240630966635    8.86367550693931
H         9.50197627359640    1.01288357014580    8.36076737304633
C        11.47219790617620    0.19069134024355    8.60770202135755
H        11.31779132324463   -0.61013253873861    7.89940913711155
C        12.68776440322707    0.31370938825073    9.26134399586840
H        13.48265027406403   -0.39022919788044    9.06310957868081
C        12.88558765183794    1.34303054562002   10.16720965337239
H        13.83491719503188    1.44242929055677   10.67355794913779
C        11.87038510663348    2.24734766883719   10.42404981140498
H        12.03079669657109    3.05812816995517   11.12123811806991
C        10.10292577196215    4.83639815318563   10.34073006236814
C        10.31722509459274    5.67624539251880    9.25737272335385
H         9.95003056791988    5.37955402128223    8.28587755421582
C        10.98089887326540    6.87676030902891    9.43537603781237
H        11.14282869471077    7.53340544555433    8.59307244136955
C        11.44029443775065    7.23656484212284   10.69149496809078
H        11.96050742039066    8.17325515539149   10.82842984219530
C        11.22697048202243    6.40053190034477   11.77535123887301
H        11.57949446780088    6.68670348703176   12.75579653871566
C        10.55281079100623    5.20633382675423   11.60172830161379
H        10.35456691234347    4.55641740569263   12.44543756741419
F         6.71638727688488    2.05950816103775    9.21851138193090
F         6.74856765587865    3.26623737789073    7.28604273740782
O         6.47202621913026    4.38517475621020    9.30658712410099
O         8.58631049906911    3.36118466287064    8.70441555611163
P         6.55769380326531    4.39851425335069   10.87163493026796
P         9.24360574733563    3.24240335997747   10.12325148188058
Rh        7.71411869095091    2.61383785910999   11.69741405806211
H         6.05314242545135    3.34985331450739   13.73692238058695
H        10.16529342920778    1.92733191031303   12.65595597466573
H         9.12256363294664    0.37006704426986   11.17462576172771
H         5.08579151472801    2.06887439426023   11.98421770110862

