82
CSD_code = IKOBEQ | q = 0 | S = 0 | Stoichiometry = C36H41O2P2Rh | MND = 6
C         0.96257884600989   12.31082187995459    4.06929442158909
C        -0.16961544890203   13.07347706968503    3.88258266174586
C        -0.51966705027012   13.77898359598184    2.59478921462091
H         0.39463785004052   14.04290973701713    2.06267934295304
H        -1.03548246038668   14.71176325438632    2.83254754378892
C        -1.43948277608824   12.92411145126393    1.70429268785317
H        -2.47488116358212   13.07017267228601    2.02585713553906
H        -1.37350795565366   13.26026097427250    0.66332399090860
C        -1.14409549998487   11.44540849397103    1.76391947005376
C         0.11237050337296   10.86400245014882    1.78076815880807
C         1.41434484353844   11.62532929942191    1.64883093451511
H         1.25570408010389   12.50564297460732    1.02483376162433
H         2.14013221915664   10.99438705813717    1.13082157134251
C         2.00674620673913   12.02903125452186    3.01446729219638
H         2.64468809039744   11.21754947811436    3.37671016373967
H         2.64719071037414   12.91059864299831    2.89646916508096
C        -1.14067849381905   12.30396864243593    7.03613712009791
C        -2.15612956155519   13.25231781490098    7.03682003394640
H        -3.05210273450169   13.06249244561083    6.46401515204280
C        -2.02641858663846   14.41724060626937    7.76930623456925
H        -2.82729843546819   15.14340416348569    7.76630076823912
C        -0.87664341806662   14.66804209658309    8.50710398072562
C         0.13986480136000   13.71859814593522    8.49525856890494
H         1.03939340000198   13.89885788159292    9.06737636495208
C         0.01443816866898   12.55160009538269    7.76690458256955
H         0.80979644388342   11.82002258995296    7.78184377284329
C        -0.72824093224298   15.92212084123701    9.31322535955247
H        -1.52217728847230   16.62883118331262    9.08568464983832
H         0.23202706388122   16.39491460898569    9.11395204144002
H        -0.76945670513689   15.68951850393859   10.37727473448438
C        -0.52957609338249    9.55370380166498    7.02735771707715
C        -1.27614242410546    8.75141808603317    7.87901888719479
H        -2.34589230740065    8.88952628685205    7.93498081416098
C        -0.65443636410699    7.78223894709450    8.64110226279156
H        -1.24301751498130    7.15531235317132    9.29614803031012
C         0.72195899943608    7.59753615951311    8.57707572766703
C         1.46279157032433    8.40475971550747    7.72362968647088
H         2.53389230420768    8.27136628683907    7.65845261658566
C         0.84373120905281    9.36533175242290    6.94795378694501
H         1.42398297864182    9.96715456529741    6.25978372927883
C         1.37876984363145    6.52769930486676    9.39471340158841
H         0.99475953538344    6.53023992086319   10.41281817203019
H         2.45684100632546    6.66431352717645    9.42548555861695
H         1.16837559600587    5.55023400062715    8.96181947664612
C        -0.65199928804804    7.73271888152516    4.36334790343875
C        -1.07963104608577    6.61278074273714    5.05473860758523
H        -2.14044224998506    6.45580765585206    5.18783218520382
C        -0.15656439294552    5.72033519489415    5.57006029657463
H        -0.49803817255630    4.84995065828695    6.11364408259868
C         1.20456234256121    5.92583132983455    5.39323093366314
C         1.62794692046954    7.06064839073485    4.70700565017078
H         2.68785478916674    7.23396482735588    4.57578865537396
C         0.70994476757677    7.96078158659005    4.20792315154649
H         1.03595671744466    8.86594920351696    3.69452340860752
C         2.21487894225973    4.95962904264600    5.93507304384030
H         1.72790010994138    4.11485256912105    6.41547107220669
H         2.85711203191143    5.45209264539473    6.66408041860160
H         2.84959856023465    4.58338935433914    5.13352157992255
C        -2.03827023189355    8.23328350569451    1.97677409877409
C        -3.26518867255379    8.42531285904287    1.35691816380665
H        -4.04258905432240    8.94426768271718    1.89998528828516
C        -3.49479270265647    7.94595495569641    0.08101129843616
H        -4.45739997317365    8.10041639521467   -0.38694373493490
C        -2.49933808737247    7.26422323998935   -0.60652678359897
C        -1.27308166242594    7.06956464609520    0.02033705186599
H        -0.49247391312090    6.53112876641234   -0.50011524073477
C        -1.04032518166109    7.54813776927440    1.29546837229395
H        -0.08523508592480    7.36959833488246    1.77016849937893
C        -2.73718160887543    6.72373213447759   -1.98426112182975
H        -3.65239026668177    7.12858303450093   -2.40918533885818
H        -2.82656059179640    5.63770840321888   -1.94959896316806
H        -1.90490090330000    6.96790701360497   -2.64238054044803
O        -2.88201630004540   10.57142740169911    6.18848261362293
O        -3.17870145142149    8.79695399350798    4.33746500625085
P        -1.33728064537018   10.81996120319589    5.98805445923712
P        -1.84365818446184    8.93987493316325    3.66488478072191
Rh       -0.68424795427697   10.91315253646783    3.80273044456324
H         1.32464762977802   12.19352956910252    5.09259764051452
H        -0.66081916616164   13.47695586950351    4.76618078226462
H        -1.97881543193934   10.82891049086500    1.42681646910890
H         0.16756547633548    9.82320943476492    1.46467608903721
H        -3.16819912454592    9.88825913001258    5.50078892806593

