66
CSD_code = IKOCOB | q = 0 | S = 0 | Stoichiometry = C29H32N2O2Pd | MND = 4
C         7.01766678434557    1.59087464712824    6.86955630747041
C         7.27422006247991    2.54830383234318    5.83580153457738
C         7.76739758466399    3.83282805631272    6.18042960002333
H         7.97167027734080    4.52741555384195    5.37565857803640
C         7.97583209692789    4.20877389461358    7.46526888884048
H         8.34840772282536    5.19454088796780    7.70066789506013
C         7.70311012653893    3.31491262853973    8.53426935189154
C         7.22598051504447    2.01584396835081    8.24594833062690
C         6.94774091033871    1.14619644764631    9.32547163957062
C         7.15391067674083    1.56448359916451   10.62688427571219
H         6.93791008429610    0.88512191411750   11.44269256055563
C         7.63320546055180    2.84303708179886   10.89691134174521
H         7.78720020023929    3.14497553818746   11.92273003199244
C         7.90159446205159    3.70713567475993    9.86795908543906
H         8.26853590565980    4.70292549611039   10.06875305646788
C         7.10758983023654    2.26815147238294    4.45823298003568
H         7.50236391601477    3.04588894534289    3.79451714440801
C         4.22456780735746   -1.47392748830813    6.82857346381398
H         3.57701080962007   -0.64068779065654    6.56069154201478
C         4.04293290240224   -2.17010257260481    8.01008011141445
H         3.25312383060711   -1.88701409828652    8.68842388391379
C         4.89449614784694   -3.22351958225278    8.30595886972046
H         4.78230316558957   -3.78548308343170    9.22121266151996
C         5.89712557206673   -3.53649109615080    7.40061768350303
H         6.58647065198815   -4.34367813626875    7.59353320847430
C         6.00989990575527   -2.78864374450264    6.24214253477018
H         6.78158052313655   -3.00454554722815    5.50670016300613
C         4.79675976480340   -1.15104983805747    3.21431520324711
H         3.72608654630958   -1.18254654293377    3.46169536206426
H         5.13292677242172   -2.18577655443992    3.06325717888176
H         4.90512425521630   -0.62707090199221    2.26349330991930
C         6.64623615783770    1.21249701449254    2.45816270029841
C         5.79167706594443    2.01206549928570    1.69109722424362
C         4.68470266632944    2.80707268736837    2.34705802531769
H         4.64794298030517    2.53652023112393    3.41041581911299
C         3.32710016292564    2.44544426810679    1.74020983179517
H         3.26734279252303    2.74456231860069    0.69686869287283
H         2.53148590589313    2.94904726363337    2.28519151238477
H         3.16458847271703    1.37220667048252    1.80425443219920
C         4.94453649867328    4.31026888656185    2.23352547307630
H         4.99512914339866    4.61241327521607    1.18974542765245
H         5.88417337964635    4.57667351874026    2.71240533163457
H         4.14466917296656    4.86794296590916    2.71597395255366
C         5.95144344224665    2.01804653874750    0.31226538509489
H         5.31277044971457    2.63874330852967   -0.29766671927492
C         6.92244539606573    1.24272370659722   -0.29081198317461
H         7.04553244024298    1.27047015350766   -1.36356718645355
C         7.72512645079256    0.41451682212895    0.47350436347755
H         8.46094584736770   -0.20214928499918   -0.01737457939192
C         7.59775296763033    0.37588794219173    1.85344523476102
C         8.45632231114851   -0.52781379795642    2.71381996417880
H         7.86556433524236   -0.80261018869501    3.62084699639471
C         8.83914676346844   -1.82884854400280    2.00893203887307
H         7.95826265028526   -2.29972570648170    1.57927581191336
H         9.28559962434239   -2.51674377143185    2.72407144727378
H         9.56644160065546   -1.65310686115066    1.21958235670909
C         9.71231899747671    0.22295133147453    3.16834850180338
H        10.28594123649124    0.55379470862113    2.30398315535988
H        10.34115620129043   -0.42498479683030    3.77530378775390
H         9.44768232765502    1.09531090224343    3.76206619367607
N         6.56916867407494    1.24021439416189    3.87007050966381
N         5.18828094289772   -1.77931163708778    5.96004180495839
O         6.65506247232216    0.40605270163059    6.63882459749084
O         6.46575948901061   -0.10137850433571    9.08053841415491
H         6.33956215992190   -0.55891767470334    9.92184352944110
Pd        5.80888354903655   -0.34050900318313    4.80930017345510

