137
CSD_code = IKODIX | q = 1 | S = 0 | Stoichiometry = C60H64N4O4P4Rh(1+) | MND = 4
Rh        5.56126637560164    3.01015353912548    4.31208746711840
P         7.16396570388076    1.87325119572405    3.18964186108292
P         3.66750017260514    3.95755947596047    5.14393765880584
P         5.70565690313972    1.19243165322484    5.67821699486592
P         5.74862163080294    5.03758805851669    3.30488330594139
O         0.65820610969585    1.92400148534955    1.59020028430720
O        12.61190919480606   -2.77268174848982    6.54007161236442
O         9.26005499238989    3.39186234115621    8.80825048007868
O        -0.28905036011556    9.59436892312854    1.04717929727273
N         5.43383951625604   -0.32141022754415    3.40729827932862
N         5.31448641992056    6.02714092845593    5.86534129169591
N         8.32412404033821    0.55694139438964    5.27211101468503
N         3.12535136431269    5.69944576396760    3.10720312783421
C         5.57040482453310   -0.47818057483384    4.83184530774004
H         6.48096500884816   -1.04993577400501    5.04053015628746
H         4.72157779309762   -1.02478395399282    5.24043540225658
C        13.16063200989353   -2.85975583323370    7.83447232996998
H        13.96409438915914   -3.59042905227069    7.76392969172916
H        12.41987474775135   -3.20621153035006    8.56181559364421
H        13.57305478662136   -1.89986589409296    8.16093082294569
C         4.53445397948927    0.97183376388199    9.59273683150268
H         4.93081676753933    1.26113139481277   10.55459764245727
C         6.65136788147469    0.10185521373682    2.78524007368851
H         6.55406868259273    0.01358393259538    1.69907788882830
H         7.45267110778259   -0.56549606912609    3.11968293300019
C         4.25422217196610    5.39214504254630    2.25468015542111
H         4.44190280168107    6.24081128125250    1.59452592101220
H         4.05330324241881    4.50717461896700    1.62809765879377
C         7.85841019262332    2.27659832349993    1.54520636396229
C         9.02694352153585    1.69892459181130    1.05949801759961
H         9.59855013504356    1.01208827239743    1.66594197333337
C         9.47046925792834    1.99470854131610   -0.21704931618555
H        10.38311660520495    1.54739827599097   -0.58091331689779
C         8.74927425005813    2.85444495006056   -1.02851616469756
H         9.10190573256067    3.08322702326684   -2.02211450261837
C         7.56906505050195    3.41024777798820   -0.56410180754738
H         6.99443830915217    4.07171700354560   -1.19449252266333
C         7.12884872010512    3.11948269689580    0.71253920578131
H         6.21096935782857    3.56319368448035    1.08126063789080
C         8.63664802629345    1.56878866595659    4.28510823813525
H         9.49400976985490    1.24030359630060    3.69474394515136
H         8.89694823611789    2.52619490326616    4.76857280954713
C         7.44334422890160    1.00346643058812    6.32412520489932
H         7.76534496197477    1.95502963469160    6.77404667288661
H         7.39840939671923    0.22868038238489    7.09629509520578
C         9.42356428741023   -0.25254931534108    5.65931152292889
C        10.01588183818857   -1.07491516501235    4.69885439174459
H         9.63886284213809   -1.07787491758955    3.68601988799367
C        11.07225320103159   -1.89334806889906    5.02229409772288
H        11.52881650638592   -2.52884898368050    4.28087738172469
C        11.57263375055517   -1.92949135915225    6.32676491515737
C        10.98310705664894   -1.11785217901465    7.28856026155056
H        11.33879955171978   -1.11373165291425    8.30637375966132
C         9.92619618339626   -0.28702945006890    6.95328776898642
H         9.50499764944302    0.33830665314051    7.72555892012169
C         4.23789002711553    0.26401757715681    2.97087133224394
C         3.01521516938591   -0.24741586808760    3.41199378822826
H         2.99516720080045   -1.09629609539667    4.07751951292432
C         1.80929125684501    0.26603376289492    2.97647908893234
H         0.89587234457493   -0.17196930637962    3.34634511045066
C         1.78321222564337    1.31299894422815    2.06073782493931
C        -0.59558276633572    1.38309196019421    1.93638433736266
H        -1.33129192585452    1.97772122244337    1.39786935212822
H        -0.78524803472172    1.46292135539413    3.01222135287106
H        -0.68047282351741    0.33755803510613    1.62716425970729
C         2.99501914632975    1.79824166916557    1.57300123540329
H         2.96713454172198    2.56254747924661    0.81062088574608
C         4.20155527201982    1.29764461567819    2.02583579326483
H         5.10656925319500    1.65465630053978    1.55497475820700
C         4.74800529146329    0.89265188516820    7.19774486225546
C         3.50753112115934    0.26418030730776    7.12361903256299
H         3.07649692744607    0.03311661953778    6.16010252006901
C         2.81304132585918   -0.04932617796361    8.27634239129938
H         1.86451494308727   -0.56026766833321    8.20810674242767
C         3.33147981336782    0.29072404258364    9.51501987390011
H         2.79358377422734    0.03574020467777   10.41518219832971
C         5.24133655068576    1.27259813867476    8.44244931294280
H         6.17675723112916    1.80668009155975    8.51348400450038
C         3.94755446492715    5.60025245606901    6.00597938601059
H         3.29393068545618    6.34892050327182    5.54524200870623
H         3.67787483579781    5.51817913227893    7.05721264246768
C         5.61290622685141    6.46224593981993    4.53416530456866
H         6.54835474477663    7.02853836605927    4.52908953336205
H         4.80434656426105    7.12031216028063    4.20232333752101
C         6.29507792506747    5.29508967899653    6.54068084562803
C         7.55853871546524    5.06224050882780    5.98807772551745
H         7.81066289993783    5.42444381628032    5.00336002149515
C         8.57343597646276    4.45672564024795    6.71619356878979
H         9.54245004295925    4.34236808765521    6.25362612678853
C         8.35049640395355    4.03081471233338    8.01787881476023
C        10.58908092562852    3.28707615759867    8.35495276781274
H        10.66682214570105    2.65479821005366    7.46312641335804
H        11.14146585214332    2.82247817337630    9.16967696165304
H        11.01864706451112    4.27059406427816    8.14282913812925
C         7.09322924536926    4.25990256755376    8.58149368366050
H         6.93060790620586    3.96551612597053    9.60641500006239
C         6.09551499634954    4.87859197342979    7.86524213255776
H         5.16580909038259    5.08445119099989    8.36978872134112
C         2.55342743411628    4.55339792145909    3.76908962605652
H         2.36381304944477    3.71955924826147    3.07556984196644
H         1.61391364971092    4.85542043312611    4.24435274092117
C         2.21023049260201    6.63584333620567    2.55485830387196
C         2.63509651900724    7.95301997638717    2.37485086126731
H         3.64459336344251    8.23498562636143    2.63865562196046
C         1.78416360833496    8.90657448433058    1.86732522664303
H         2.11061101550036    9.92451174221127    1.72836342261594
C         0.46849212978521    8.57898589419211    1.52877697739163
C        -1.62618539840323    9.33360032734352    0.68952195937642
H        -1.68937363405250    8.60034227598987   -0.12053367936265
H        -2.02862989591880   10.28450044046690    0.34551587986782
H        -2.20953231844376    8.98323383044245    1.54675937151870
C         0.04164654041361    7.26758376733387    1.70291503592238
H        -0.96227488321039    6.97156065543435    1.44397438753169
C         0.90791629052521    6.30903100415116    2.20272758010807
H         0.55134914896348    5.29495768544582    2.30036325201743
C         2.42099431517115    3.17263284764754    6.21890172107268
C         2.49655257582535    3.25853509944404    7.60572826249556
H         3.34851291055007    3.72334615938229    8.07810343441380
C         1.49398703680489    2.72866344827834    8.39654294079117
H         1.55428400553503    2.82325260964171    9.47012202147702
C         0.41821492126026    2.07842455665085    7.81640002543239
H        -0.36918354988158    1.67516002810290    8.43440693560390
C         0.36698845350265    1.93312036265080    6.44019040661706
H        -0.45672081124629    1.40238655859352    5.98538098681598
C         1.36042849823867    2.47459458550244    5.64610062851024
H         1.31929171531920    2.35153976555605    4.57456156844416
C         7.16819196000488    5.68166563850412    2.34453340993743
C         8.40930553160948    5.07779028349896    2.52094508741750
H         8.48667715269302    4.21411411396945    3.17086784115171
C         9.53058797439032    5.55508053694104    1.87067007291111
H        10.48403447820222    5.06904532687028    2.01266047835214
C         9.42582900016970    6.65457114377366    1.03535113526294
H        10.29646515656331    7.02826054305360    0.51928375385086
C         8.20120742935944    7.28048876190585    0.87409721797797
H         8.11837344972882    8.14827343015537    0.23735795098224
C         7.07887472485819    6.80473339520526    1.52850450686936
H         6.14031050368282    7.32263392976167    1.39900497339600

