161
CSD_code = IKODUJ | q = 1 | S = 0 | Stoichiometry = C60H88N4O4P4Rh(1+) | MND = 4
Rh        9.49120943486212    7.71473203416410    5.27324757288696
P         8.26228815229526    5.96592302805332    4.45657855961883
C         6.74048084776198    6.07103032548959    3.38784621267345
H         5.96590203998831    6.48651933353945    4.04435766525535
C         6.22482502316281    4.73930082902080    2.84094684565140
H         6.94129421150949    4.31125532552927    2.13868693507928
H         6.06761207952214    4.01913466377884    3.64568293249965
C         4.90363381006605    4.98187841189089    2.10899866660694
H         4.16098407774108    5.36085903146618    2.81521157373199
H         4.52974529407733    4.03830625579820    1.70891023933690
C         5.08778418739374    5.98613617797177    0.97450114064555
H         5.77426046134024    5.57237931500745    0.23272429386871
H         4.13172511953432    6.16362145476232    0.48023858426784
C         5.65094158248947    7.30291846665166    1.50290856194308
H         4.92685651914864    7.75839617300500    2.18382999435554
H         5.81164162038653    7.99554043368617    0.67427684978362
C         6.96442837902183    7.04982865896772    2.23776096729918
H         7.68669670874363    6.63895041963036    1.52821054841647
H         7.37955143274899    7.98233265807224    2.63710457532738
C         9.35245484464004    4.87535542127031    3.36774148801160
H         9.08737096186556    3.82981110008453    3.58406855949857
H         9.09204196848117    5.08708728230314    2.32841473844832
N        10.76697706635970    5.00948496832318    3.49520027648525
C        11.43787412343249    5.95428776488001    2.69857301647268
C        10.82803592243882    7.10883028784280    2.22384090654444
H         9.82225259446130    7.37388427402915    2.53674733932482
C        11.48400434994808    7.94204547495630    1.32919222722264
H        10.96462758454935    8.80811277199087    0.95287482590619
C        12.78025134978799    7.65258652666108    0.92376469127537
O        13.51484672233883    8.39391154242687    0.05061418839626
C        12.90184531904016    9.48264143630703   -0.59532401367641
H        12.00871703944488    9.17419718886605   -1.14783548816963
H        13.64489216063873    9.86538788308411   -1.29298181263645
H        12.62779173149222   10.27150569557304    0.11296268952362
C        13.41398784252197    6.51824352751809    1.43984880026750
H        14.42129810898220    6.30471643610464    1.12059444904613
C        12.74979772632615    5.67871517839580    2.30098526178499
H        13.23868152902731    4.78318984372020    2.65348065481214
C        11.30109954311362    4.72975895772078    4.79427403502661
H        12.39077153860508    4.79123715786065    4.74610237931707
H        11.01629431909952    3.71137489951461    5.09238738259116
P        10.94318895497121    9.46649628134338    5.36722215227457
C        12.80035597438973    9.36308004760848    5.49163150824709
H        12.99333468082857    8.97424680466323    6.49953702396867
C        13.34466400334541    8.36037464581466    4.47810002555665
H        13.22212134904639    8.74509362379566    3.46432186613129
H        12.77391878014814    7.42843229239646    4.53421027166348
C        14.82831803311752    8.10896731276146    4.72611204418945
H        14.97266603295990    7.67319809630932    5.71841801890462
H        15.20783073699111    7.39979735373242    3.98878365057571
C        15.60124744664000    9.42188738352326    4.63506963157134
H        16.65636268591799    9.24852228001993    4.85034106484759
H        15.52837720466184    9.81045251917345    3.61720285982874
C        15.03774860884399   10.44980486335278    5.61289907321602
H        15.58121130470693   11.39091683844290    5.51431518163988
H        15.17430509139219   10.09377761892416    6.63684776551170
C        13.54981110677857   10.68883020373337    5.35092051509251
H        13.43455146535723   11.08376629441029    4.34066649613867
H        13.17107409937343   11.43433170776385    6.05323509736582
C        10.57597829129611   10.71958894982799    6.69251956869758
H        11.42752400656356   10.74488820627371    7.37710367829860
H        10.45590166168006   11.72979465119845    6.25695123551991
N         9.40377570521783   10.31960056385226    7.43877161275215
C         9.39534130132402   10.76816828284813    8.78654705154879
C        10.35084841911056   10.25589979890432    9.66727661873150
H        11.08395129516578    9.55309618595773    9.30577208017200
C        10.36040909478374   10.61706542503267   10.99353237813927
H        11.09395760661603   10.21403977108804   11.67298528921510
C         9.41121184147515   11.51097415317402   11.49741882063250
O         9.49584250489989   11.78457868207975   12.82266329962134
C         8.57061338934025   12.68220292258100   13.38995374227698
H         8.65040004349322   13.67752217216669   12.94233393296751
H         8.82863371889914   12.74183494256798   14.44544725974082
H         7.54377874777748   12.31635441639963   13.28866605300277
C         8.46755343398894   12.03813269444182   10.62521694560529
H         7.72616502963153   12.74203868223820   10.96822840035709
C         8.46557239045487   11.67027959273671    9.28802246580639
H         7.71996955264328   12.11183846994590    8.64439289979650
C         8.17233726028847   10.50515975386531    6.71834911492362
H         7.99917932391160   11.55977027620291    6.42798759689876
H         7.36244087614970   10.17484266921858    7.37376523702885
P        10.71996576778559    5.96579328782599    6.08939090861391
C        12.24172329025100    6.07101913280711    7.15810125431211
H        13.01629856987959    6.48650981470235    6.50158288379425
C        12.75738584060850    4.73930923464480    7.70501669252564
H        12.04091188904072    4.31127001168597    8.40727741971042
H        12.91459729161183    4.01913481944643    6.90028381499207
C        14.07857112249166    4.98190347917901    8.43696114494963
H        14.82121574661260    5.36088617222385    7.73074262217043
H        14.45246288699758    4.03833908188987    8.83705741885817
C        13.89441635284087    5.98616825438751    9.57145231267501
H        13.20793838076891    5.57241609302624   10.31323085436094
H        14.85047471110546    6.16366042639930   10.06571602990677
C        13.33125655389722    7.30294243031199    9.04303043408138
H        14.05534391700910    7.75841622902260    8.36210994619595
H        13.17055234504114    7.99556777735878    9.87165922689131
C        12.01777083594975    7.04984178896926    8.30817331105669
H        11.29550274382638    6.63897439119932    9.01772971049959
H        11.60264995034662    7.98234509099362    7.90882668964539
C         9.62973341301489    4.87532270867179    7.17824378135688
H         9.89479405467361    3.82977539742619    6.96191079796936
H         9.89014881565757    5.08706391654885    8.21757030144015
N         8.21521595546465    5.00950994116515    7.05075249410303
C         7.54431069666511    5.95429735967783    7.84739171064606
C         8.15413636790569    7.10883539307565    8.32214587335337
H         9.15992324252863    7.37390038852979    8.00924730835903
C         7.49814693759464    7.94206038779026    9.21676846237372
H         8.01750849494604    8.80813719531707    9.59307967067349
C         6.20189070279150    7.65260091002122    9.62216726943988
O         5.46727826366830    8.39393465649188   10.49529337055554
C         6.08026355323341    9.48268302346807   11.14122027634189
H         6.97339166530941    9.17425945826069   11.69374430269725
H         5.33720652927260    9.86543736473710   11.83886352549375
H         6.35431337833766   10.27153751453656   10.43292069937723
C         5.56816982952558    6.51825164612211    9.10607480037050
H         4.56085496876117    6.30472149345792    9.42531450422054
C         6.23237651469358    5.67872566274383    8.24494982145368
H         5.74350314661115    4.78319878146328    7.89244402913240
C         7.68112719619517    4.72984468482925    5.75165377145767
H         6.59145689374504    4.79130773993172    5.79981589495836
H         7.96592957672818    3.71146517852918    5.45353093857578
P         8.03900916285096    9.46644818483927    5.17867055228408
C         6.18180396932496    9.36307268963291    5.05427457762231
H         5.98881476903118    8.97424356043615    4.04636614357843
C         5.63752423092288    8.36037647147073    6.06782654556213
H         5.76006809471682    8.74509464743900    7.08160832364423
H         6.20827970178289    7.42843465829173    6.01171813024655
C         4.15387210734150    8.10898366477198    5.81979982913715
H         4.00953430862016    7.67322055230367    4.82748856621360
H         3.77435948243843    7.39981681383590    6.55711854158181
C         3.38093795025949    9.42190018319344    5.91084977149606
H         2.32581637443726    9.24854225613505    5.69557413801115
H         3.45380545723865    9.81045901609901    6.92871978259357
C         3.94445925154724   10.44981417785902    4.93302959990941
H         3.40101204897862   11.39092370040547    5.03162037326726
H         3.80790618031603   10.09379479676060    3.90907630653836
C         5.43239405698972   10.68884664774151    5.19501234614524
H         5.54766062562231   11.08377964199533    6.20527040515710
H         5.81114569521035   11.43434985198521    4.49270224874178
C         8.40622829595354   10.71959962093411    3.85340494895209
H         7.55468197531389   10.74490633346722    3.16882402264184
H         8.52629461313453   11.72980962502939    4.28898232073009
N         9.57843294867451   10.31962615423684    3.10715041611133
C         9.58686535235688   10.76819030417231    1.75938382701849
C         8.63137036733689   10.25591638122672    0.87865135936096
H         7.89827198733084    9.55310499985602    1.24015222544579
C         8.62180668848485   10.61709719911567   -0.44759943665489
H         7.88826338496328   10.21407293254466   -1.12705838873441
C         9.57099787895200   11.51102125190410   -0.95147110677209
O         9.48636862206447   11.78463775831103   -2.27671241088659
C        10.41159613554732   12.68227330425763   -2.84398758189314
H        10.33179596966106   13.67758804650791   -2.39635989796046
H        10.15358519781477   12.74191123432252   -3.89948284296327
H        11.43843241076871   12.31643188840421   -2.74268970286733
C        10.51465166032623   12.03817886057547   -0.07926341008472
H        11.25603310644451   12.74209805259849   -0.42226224328799
C        10.51663395446596   11.67031379288335    1.25792672251206
H        11.26222926725217   12.11187272701907    1.90156457915122
C        10.80987790350597   10.50521062426431    3.82754467059922
H        10.98303321525834   11.55982381407407    4.11791366103008
H        11.61977882078849   10.17488921395422    3.17212696406395

