53
CSD_code = IKOFET | q = 0 | S = 0 | Stoichiometry = C12H35FeNP4 | MND = 6
Fe        8.90988496316811    2.10972517835249   12.34658563105323
P         7.75584650381475    1.43133551813262   14.00485802773820
P        10.41093396952667    2.61401787977336   13.78579577018057
P         7.85200922620886    1.01454703913215   10.86716290930690
P         9.85182969699354    3.15424276389856   10.76136746234368
N        10.41365132108558    0.81404919446277   12.73818869966950
C         8.61778515218058    1.76030184546811   15.61112301388516
C        10.11813714719928    1.70731720399917   15.36597350787075
C         7.33009957560233   -0.34586439027886   14.24607225978001
C         6.13612359877570    2.19480766267522   14.35969367771232
C        12.23816503472871    2.69729425057418   13.66781285773447
C        10.22433202948325    4.34622717432200   14.50579725014923
C         8.23722925472657    1.66827588631213    9.16813525950298
C         8.69936073407565    3.10716564142902    9.32113798676860
C         8.18018086164891   -0.77181101094624   10.56635052575158
C         6.01759537361071    1.00829726410066   10.78877157060439
C        11.40832490109865    2.59154888003566    9.95111718049224
C        10.18401051393483    4.94461258604576   10.86473231190385
H         8.33237600849385    2.77432400165857   15.90876411655588
H         8.28968929340777    1.06119165843143   16.38821183619572
H        10.46661717777583    0.67633091833637   15.26828775297157
H        10.67625325700884    2.18855617331645   16.17557174695611
H         6.78175676639182   -0.48096714369492   15.17879639202809
H         6.71858618864930   -0.68486969688680   13.41010000805470
H         8.24616505817556   -0.93596961661112   14.27343401318124
H         6.28246997034348    3.27378283380399   14.34466144028538
H         5.43092911603397    1.93153726640380   13.57352835209920
H         5.75815402280090    1.87124374415904   15.33111301220703
H        12.67330545612741    1.73253415776990   13.41983084240587
H        12.51943581329196    3.43497295976891   12.91546874310399
H        12.61112582112719    3.03347894919017   14.63577273678166
H        10.74354615969179    4.49999961890541   15.45400221043965
H        10.60535945057698    5.06114718781685   13.77662600814254
H         9.16215859372033    4.55281311349276   14.63000006771506
H         9.04981611126616    1.05779385441349    8.75818595550921
H         7.36939075578613    1.57802429761812    8.50705313112813
H         7.85646890487203    3.74748921882172    9.60021530712716
H         9.16828264442292    3.49802455567438    8.41142218428468
H         7.82292605037438   -1.35619964057611   11.41309114913653
H         7.68462784973686   -1.10417529413736    9.65378514093408
H         9.25696793170602   -0.91404242754381   10.47533927558727
H         5.68914348520082    2.04752860736334   10.79789077244727
H         5.66145131999126    0.50533584652986    9.88848079657362
H         5.61883188335251    0.50805040130461   11.67067593489670
H        11.29383796473623    1.55789337731989    9.62342629450410
H        11.63762364690087    3.22568366859450    9.09427905037920
H        12.22397463280571    2.64123107456006   10.67177439988870
H        11.06676669668309    5.11566480910121   11.48036564760646
H        10.34211805838648    5.36185945905152    9.86852179083114
H         9.32026649467246    5.40592024909978   11.34064485637290
H         8.02758352419282    3.28893516211896   12.33465435659008
H        10.17029414966352   -0.10568593332766   13.09068687430980
H        11.06809988431035    0.68687201973082   11.97326189980132

