43
CSD_code = IKOKEZ | q = 0 | S = 0 | Stoichiometry = C18H22Cl2Zr | MND = 12
Zr        2.44445810975808    7.10139709347457   14.62754620304674
Cl        2.74190016942186    5.54891830051380   16.33868343277569
Cl        2.36518128222985    8.91943616650920   16.08497745819344
C         3.66847001542074    7.64667494094521   12.55118756556632
C         3.94513803627516    6.28872229905919   12.88031119458595
H         3.74787904299648    5.41642850066297   12.27000395411955
C         4.72135287085060    6.27077798222960   14.06528320773760
H         5.18494217027898    5.39460782007522   14.50395892228134
C         4.88767158015586    7.60165082779393   14.50181455880013
H         5.48913985260062    7.92689598935331   15.34321862045955
C         4.23283158896595    8.44861446070279   13.57419299889832
H         4.26088108708961    9.53307230548381   13.58386283433237
C         2.87198189851399    8.19207706454402   11.40465449074692
H         2.96097120226055    9.28249621971281   11.40428719767274
C         3.04896035059096    7.53669070700805   10.00931698598535
H         2.83432978395517    8.28651193611494    9.24280314555282
C         4.35883031042760    6.85167122506529    9.65554169622382
H         4.56961977031778    6.03986132742186   10.34999648747573
H         4.26273012388755    6.41841033803983    8.65692010564019
C         5.52156115359643    7.83717551107983    9.68047717380398
H         6.44504516005206    7.34320365098899    9.38920506162481
H         5.64820832013516    8.24040851401306   10.68231722437691
H         5.34158957367418    8.66187532923956    8.99423244791443
C         0.88080563165751    7.16911797766273   12.71060387742293
C         0.36759543617301    8.02149686710570   13.72212469367846
H         0.18435037480771    9.08634040585087   13.62049577501993
C        -0.02501727485677    7.21729992084475   14.82283386792925
H        -0.54289243710309    7.56534891970205   15.70983544628086
C         0.26226203821571    5.87463906765819   14.50304082280369
H        -0.00499500044364    5.00871891301620   15.09709146152517
C         0.84922297873420    5.84173574201101   13.21380597424917
H         1.05103788736180    4.93694273167615   12.65366978085869
C         1.39811288565945    7.66306355844362   11.39711542377672
H         0.72921050129270    8.43732387578380   11.00865795904253
C         1.78754610760987    6.68631969513201   10.26677766836540
H         2.05437392303675    5.70396011993042   10.65874082654925
C         0.79142423817228    6.52042054334222    9.13038778218753
H         0.50350303237030    7.50460889332052    8.75346144214592
H         1.26895638585584    5.97827919568276    8.31092263483451
C        -0.45213458852264    5.76771607279789    9.59033679589395
H        -1.17769758325621    5.69773983131035    8.78398995355320
H        -0.91528952668653    6.27939119417192   10.43062531097306
H        -0.19334846352459    4.75935796453202    9.90518953509337

