45
CSD_code = IKOKOJ | q = 0 | S = 0 | Stoichiometry = C20H22Cl2Hf | MND = 12
Hf        3.44898616423183    1.79859257638909    0.95995006954420
Cl        4.88342814702227    3.30719635029046   -0.03823301414667
Cl        3.82114990758929    0.23994528551163   -0.70396566418265
C         1.18551722249129    1.98789316284225    1.81519847548446
C         1.65229589118432    3.32203580502636    1.68718663915063
H         1.70567293321811    4.05206558513100    2.48309458032663
C         1.79247385124820    3.61106556123339    0.30921582831969
H         2.02342906177819    4.57910853707216   -0.11115014926645
C         1.45146255652390    2.45542629094209   -0.41763981910672
H         1.37520057650106    2.38133224369430   -1.49366276434489
C         1.08420670723770    1.44554764822011    0.50772901212270
H         0.63960332838212    0.49366208011565    0.25156692339035
C         0.87764343971241    1.25356290841527    3.09797777838395
H         0.90534548627279    1.97409366138371    3.92678292671788
C        -0.51578951746844    0.67575954118263    3.01965079340198
H        -1.13333677379764    1.15627311911719    2.27219869821742
C        -1.05087771390163   -0.30322395460700    3.73298028397330
H        -2.07300556581953   -0.58325866334212    3.51244778975685
C        -0.41244399095169   -1.11180239443616    4.82496808611566
H         0.30221810619559   -0.49240596123627    5.37128944383145
C        -1.48707939405258   -1.55641336712555    5.81860282366982
H        -1.99151844305352   -0.68726299387032    6.23550600339195
H        -1.05113260284678   -2.12108956942315    6.63886797349346
H        -2.23051008909099   -2.18117635060786    5.32759018543335
C         3.34964254084104    0.72627184247317    3.05589017357694
C         3.82681958060500    2.02872002119404    3.37597439637438
H         3.33992238633373    2.73700035829909    4.03086485380654
C         5.14717253492906    2.14717234247533    2.89064074510880
H         5.80728314238854    2.98484504228798    3.05915589786395
C         5.49660384073034    0.93769667033614    2.26501693342851
H         6.47010509966989    0.68768568480450    1.86886517775416
C         4.39753943358273    0.05389283469783    2.36675552192705
H         4.41438393798966   -0.99432834155349    2.10181281294771
C         1.98037809747823    0.17085613694532    3.36599334715081
H         1.94420294136890   -0.09814184296221    4.42335432481837
C         1.69660316667094   -1.04372336692526    2.52806167832978
H         2.10238189463912   -1.01294399193269    1.51956815150596
C         0.96919034993979   -2.08857159203285    2.89417379875173
H         0.83893247537839   -2.88808943622930    2.17650406206830
C         0.31660548259809   -2.34383738012038    4.22879573210404
H        -0.44432495953768   -3.11569226908614    4.07020052738049
C         1.36142521366010   -2.90964245406385    5.19761658615632
H         2.16186372167761   -2.19326166403649    5.36663252987852
H         1.80042829896721   -3.81388955872665    4.78216108710746
H         0.90910153148118   -3.15864613776594    6.15410875827468

