59
CSD_code = IKOLIE | q = 0 | S = 0 | Stoichiometry = C30H4F20OsS4 | MND = 5
Os        8.54883139354917    5.56119475272494    5.33543236896804
S         7.89845706710328    5.26129738513229    2.87415594847418
S         8.70239553005722    7.74199935113595    4.93009160769484
S         6.35685409714367    5.32410990286257    5.99985778193070
S        10.50063570144327    4.49162597635309    4.99479622996500
C         8.50982625810856    7.94368743431033    3.20239999927393
C         8.68992632151388    9.23307053147906    2.68492965416580
F         8.93916934891690   10.23885775073530    3.51982527617062
C         8.62340974819619    9.48582428412969    1.32209296251650
F         8.80571838290423   10.71767620772518    0.85814736831052
C         8.36974544350316    8.43924448038691    0.43352411391239
F         8.31226347895609    8.66447971107198   -0.87671606464427
C         8.16627058715601    7.16188636224352    0.93635265743679
F         7.91629560362397    6.15176415438497    0.09327445227779
C         8.23767047464110    6.90883415547357    2.30155215728409
C         9.09956580422419    4.33654157418055    1.95872763818498
C         8.73344125304878    3.08060996767585    1.48193477990907
F         7.49017267128733    2.64908575452881    1.70456858123664
C         9.63161637664360    2.28175533128478    0.78593898230156
F         9.26217134307169    1.08878760666289    0.33801249259950
C        10.92397411703556    2.75047579304728    0.55076291823531
F        11.79202927617727    2.00263500521001   -0.11877357982864
C        11.30304139277553    4.00689752456372    1.01938140697392
F        12.53436718393021    4.45722527121551    0.80161560261141
C        10.39546423961493    4.78768860790396    1.72563811601061
F        10.77826774879653    5.98614339299619    2.17878195741480
C         5.75811133922446    4.01635353145698    5.00681802508884
C         4.44455822230994    3.97650402592970    4.53095891492111
F         3.64536618291936    5.02545770165920    4.72527832749694
C         3.96219786424124    2.86688573120074    3.84681421483566
F         2.71010761318218    2.85755830388435    3.39535093515442
C         4.78328740649836    1.76105398193205    3.62878940794351
F         4.31576498646974    0.69897467734182    2.97978861526244
C         6.09752622752542    1.77760273677083    4.09338178610470
F         6.90217114320622    0.73780895289298    3.89200122511263
C         6.55735912518294    2.89744821272270    4.76388266934873
F         7.84244127864605    2.94648950508126    5.20324077267970
C        11.59407652596064    4.72278773099749    6.34659664339807
C        12.01970704988557    6.00716219415497    6.68380306096880
F        11.55427019462072    7.03773581209903    5.97234761104602
C        12.88531377071343    6.22615699351604    7.74515167365208
F        13.26063059830987    7.46224183031818    8.06526897639539
C        13.35799030318137    5.14006483798362    8.48111391649472
F        14.18779092279919    5.33753875403336    9.50020299046505
C        12.95572968729376    3.84843311691015    8.14845311970503
F        13.40036735679812    2.81078604836546    8.85402119260155
C        12.08093342878927    3.64745712784402    7.08638309226477
F        11.68357144571696    2.41111562647769    6.78873915999581
C         8.98784910035836    5.70314304938145    7.34385191256959
C         9.28115147346422    6.88619136836028    8.00229630404512
H         9.24420896088598    7.82907378176631    7.47738525555602
C         9.63978685722179    6.88036769932660    9.34133031389072
H         9.87736751968473    7.79519990698496    9.86008217090331
C         9.68958359651002    5.67332526021145   10.01335162239143
F        10.05601653491926    5.65678434302794   11.30933104538474
C         9.37931181543280    4.47911712500022    9.38872764574390
H         9.41431680900374    3.55476007630246    9.94313718039905
C         9.02369946567325    4.50563774022011    8.04997618834825
H         8.78445434994523    3.56748394649074    7.55933862043271

