63
CSD_code = IKOMAX | q = 0 | S = 0 | Stoichiometry = C31H7F19OOsS4 | MND = 5
Os        5.65322015358465    2.93152451614128    5.18870511634134
S         6.51666903552542    3.45555427558383    2.83034256824375
S         5.56735221800160    0.79437624166114    4.58041934738150
S         7.76241276756811    3.14394093114012    6.07892917200882
S         3.72352527383290    4.01221576424198    4.75634306738789
C         5.93321843114519    0.74633288288435    2.86998709900901
C         5.83160712967159   -0.49518324057187    2.22845678034206
F         5.52535333842086   -1.57399236146685    2.94604381876177
C         6.03344992749775   -0.62759876861197    0.86238963604887
F         5.92388643340269   -1.81737913247548    0.27911547802602
C         6.34730563199680    0.49569592437379    0.09508667170124
F         6.53438184053731    0.38591764245928   -1.21851289828162
C         6.47361996735922    1.72680150892366    0.72247340120378
F         6.77998985018329    2.80983114288341   -0.00386353719407
C         6.26750290794315    1.85917728195347    2.09103556937554
C         5.38233254845974    4.43809270532145    1.89165242387498
C         5.75805001011417    5.73856518805728    1.56512076895434
F         6.96600525336381    6.16843738792543    1.93613809375361
C         4.90544669595014    6.58328661844878    0.86622396903992
F         5.28370641780100    7.81864779637551    0.56237989988613
C         3.65071969499218    6.11770324834750    0.47422276504828
F         2.82700023363238    6.91054082434057   -0.20059530959103
C         3.26286339273815    4.81744224940822    0.79095750514805
F         2.06672138236603    4.36873150776683    0.42297657883243
C         4.12325944678334    3.98977421844495    1.50255042517864
F         3.73009957559614    2.74887125402097    1.80878836455684
C         8.42851036194783    4.53550860995159    5.25747100934930
C         9.77973997903866    4.62960226812671    4.91314099608369
F        10.57754609771670    3.57687510992094    5.09505897628987
C        10.30358064717803    5.79777520050574    4.37212286386199
F        11.59272606753478    5.85817887831416    4.04427224469476
C         9.48643206104918    6.90916194126972    4.16959079944228
F         9.99316936778993    8.02776783096496    3.65855541314626
C         8.13505329524472    6.83970718711524    4.50465146636969
F         7.33492450038137    7.88551549158322    4.31535689580936
C         7.63496694202307    5.66281640387379    5.03351217566996
F         6.31643283826694    5.56407485000866    5.34445181788898
C         2.53871276198976    3.71655445611815    6.01576909374087
C         2.10061688458840    2.41713792929018    6.26834553239558
F         2.59198962584042    1.42278400762662    5.52447323064581
C         1.19944702152861    2.14772616670425    7.28699319470711
F         0.82648128582858    0.89447113849519    7.54792911611546
C         0.69167854949435    3.19579361680850    8.05271994889756
F        -0.16648275153570    2.94196933773861    9.03813652484964
C         1.09096343160721    4.50358976067543    7.79129421110372
F         0.60670953098093    5.50578169875602    8.52223816873384
C         2.01009421797504    4.75542767320225    6.77874128125615
F         2.41246672188678    6.00578989476678    6.55550814713497
C         5.03481019954365    2.59515754271000    7.12542901066814
C         4.66279591533248    1.36475463840887    7.63045608037808
H         4.79599630468543    0.46787302276687    7.04353130838701
C         4.08440139827183    1.25235734097206    8.88700317376259
H         3.79127338613588    0.27635027784892    9.23802766660123
C         3.88287515658786    2.38765745902022    9.66473599455715
C         4.31545395494914    3.62474551824555    9.18072321259041
H         4.18481732332864    4.49524892545242    9.80363359734266
C         4.88790290971576    3.72164068341194    7.92868933144606
H         5.20228614394506    4.69843582489911    7.57452877089540
O         3.27663894691022    2.40571963475130   10.87780429651203
C         2.78036110634157    1.19583759392255   11.40465999148064
H         2.31975551061044    1.45868449554169   12.35511815509145
H         3.58434851882991    0.47449766899024   11.57833666948723
H         2.02592422791769    0.75222231368513   10.74772285748858

