120
CSD_code = IKORIK | q = 0 | S = 0 | Stoichiometry = C43H72Cl2P2Ru | MND = 5
Ru       -1.06953678145532    3.69030738814405   12.80167007342514
Cl        0.58572681240163    2.94455307275989   14.32315231199517
Cl       -3.09500224369908    4.33218557118875   11.75814521617730
P        -0.84002829228946    5.87026941768087   13.68023015166953
P        -1.66658302198529    1.44014188763333   12.41043633818169
C         0.87255734057285    6.45108335238504   14.14109175825987
C         1.67869128499855    6.82962455735430   12.89831441351566
C         3.15869523482221    6.92442522992508   13.25695139509979
C         3.36633882924225    7.98162578137022   14.33792408193737
C         2.50432301201905    7.67593873843196   15.55974437616008
C         1.02777481904127    7.56851853662940   15.17457972307293
C        -1.75035315031164    5.92437304007824   15.30810173680493
C        -1.06317344880538    5.08252391235446   16.38630707155468
C        -1.81672417610293    5.20838582985910   17.70723406254898
C        -3.25289345865369    4.72219770353454   17.54714384421834
C        -3.95674320884240    5.49378796349639   16.43442357453884
C        -3.17963137658307    5.41090637895519   15.12389744218564
C        -1.70484214952273    7.21270957613430   12.71283044685921
C        -1.63261475635907    8.63305243170075   13.26646022170241
C        -2.60221805922421    9.52424041809819   12.49029555393663
C        -2.25540526913556    9.52670101659186   11.00442627548325
C        -2.25879800552621    8.10503667765069   10.45000269717624
C        -1.29635920292570    7.22140949095762   11.23910634106754
C        -2.50290160001892    1.08303527868602   10.78113082818002
C        -3.36449389559532   -0.17430313472155   10.65046642618064
C        -4.15529684278272   -0.08684329299702    9.34373971362968
C        -3.21789403292326    0.02355405150413    8.14440823650958
C        -2.27858675033285    1.21642764148236    8.30172522844376
C        -1.51243552717319    1.10427764387500    9.61687041558408
C        -0.32067772676974    0.17977356354164   12.69831257333357
C        -0.66713045415406   -1.29038848095494   12.48152336421060
C         0.47962093728956   -2.15590065027751   13.00385003414218
C         1.78152290481311   -1.81545931006538   12.28369536416191
C         2.10727650569890   -0.33198634321881   12.43275737959773
C         0.95083350871534    0.52143489400636   11.92010996271150
C        -2.94893691803226    0.92946224005040   13.66442579052507
C        -2.44130935963190    1.23498919421636   15.07509173440355
C        -3.45209166481424    0.78060452555721   16.12393694641717
C        -4.81576921755662    1.42645284130721   15.89593461736822
C        -5.30651368657048    1.14950762963464   14.47930653042467
C        -4.28713832704611    1.64236310472185   13.45640275544727
C        -0.15809692875964    3.92696201008927   11.13221458646771
C         1.20818585241061    3.95528543829363   10.72486820564770
C         2.29440389464703    3.81408567249907   11.61051048926437
C         3.59190504575492    3.82086941647931   11.14581923732455
C         3.85558343492328    3.97723381950885    9.79273415195746
C         2.80301271856951    4.12538198912012    8.90115020015477
C         1.50221637363201    4.11391741121638    9.35543870260608
H         1.31787615465295    5.53505380732453   14.55744309322566
H         1.52475306885263    6.09022144398839   12.11058906858277
H         1.34795803584788    7.80169588324092   12.52670993102813
H         3.50442995093316    5.95497682073451   13.61971135433923
H         3.74114700085874    7.17633730027296   12.36804625412055
H         4.41841645671928    8.02060041781899   14.62735383693599
H         3.09450303342820    8.96313167401257   13.94085915509863
H         2.82959932830316    6.73277937308417   16.00453795586488
H         2.63176695160817    8.46116547724222   16.30868900108893
H         0.70322428056799    8.52146397010954   14.75605308128927
H         0.43948078659917    7.38247324881663   16.07256191926525
H        -1.78548132614813    6.97145473838860   15.63797457991542
H        -1.04756338475131    4.03312093786138   16.07974653873750
H        -0.02523344555958    5.38479863348882   16.52607476985943
H        -1.30911564090418    4.62254358225488   18.47640508489079
H        -1.81732481449325    6.25354224477572   18.02943137266690
H        -3.24070590687774    3.65719903830513   17.30624586760297
H        -3.79946266895478    4.84319859820737   18.48507619349306
H        -4.96720982354028    5.10379320528900   16.28870984937778
H        -4.04739374281545    6.54384916972762   16.72583791108329
H        -3.70808064473917    5.98105274372542   14.35668366813364
H        -3.13647852417836    4.36751934624264   14.78174249695636
H        -2.75438221343096    6.88740701003751   12.73443487008021
H        -1.88552812869597    8.66136419542450   14.32812959136275
H        -0.62305557658667    9.02854638202987   13.14317432577180
H        -3.62125404312672    9.15404962203487   12.62399887051277
H        -2.56138829734892   10.54264142134115   12.88440008078034
H        -2.97200957422000   10.14304946318749   10.45769917826589
H        -1.26408557509430    9.96622896586969   10.86600608581406
H        -3.26440596075454    7.68522786369994   10.51674348291961
H        -1.97022110308481    8.11628399389468    9.39699153473122
H        -0.28017452121167    7.59848866234125   11.11950413553690
H        -1.32828405362821    6.20227400737086   10.84958310477385
H        -3.15804388389381    1.96045609690322   10.67146471800687
H        -2.73640624376019   -1.06525158210961   10.62323902839107
H        -4.06080928509016   -0.28397126357273   11.48110273044572
H        -4.78857167598673   -0.97091909080323    9.23790628367382
H        -4.80624564112279    0.78976916654818    9.37569078119062
H        -2.62663156295979   -0.89237257519289    8.06301640387752
H        -3.80097235955238    0.12496128643707    7.22686628581163
H        -1.57934172858426    1.25212903014717    7.46323171051378
H        -2.85736318397858    2.14225380936779    8.29873564246853
H        -0.81500634198638    1.93716343708651    9.72846092281416
H        -0.93420447820831    0.17774198686974    9.60596459999302
H        -0.07616938642831    0.32142684938175   13.76036737506381
H        -1.59125590940704   -1.56442621304117   12.99428865142858
H        -0.79448302936801   -1.48794324817162   11.41598484921455
H         0.60329237346162   -1.98470755274951   14.07572545903084
H         0.23907514589765   -3.21201798913156   12.85920483558680
H         2.59621584512351   -2.42048606604940   12.68690599361638
H         1.68044315810057   -2.05782159670993   11.22260265226786
H         2.28632117395209   -0.09683234141109   13.48363493737341
H         3.01546584641288   -0.09092530392928   11.87659851258024
H         0.81459142624160    0.33529949148097   10.85447470391758
H         1.18545082121674    1.57830898534423   12.05207642221107
H        -3.09916022832601   -0.15419030462471   13.56604750088023
H        -1.48358295040620    0.74384414610534   15.26351018043075
H        -2.27654210132745    2.31810877961598   15.16279248678259
H        -3.55440755923913   -0.30668169905445   16.06829963831028
H        -3.08267506367400    1.02627053885486   17.12279871926662
H        -5.53306392387012    1.04398161391546   16.62553821179507
H        -4.74075477098340    2.50619661210956   16.03974703816927
H        -5.46317322927975    0.07473578717326   14.35003308651456
H        -6.26335837361642    1.64846800173618   14.31273090122144
H        -4.15217009208524    2.72081479715408   13.56909179119668
H        -4.67119759966471    1.47859920223166   12.44969213651229
H        -0.84083510680142    4.04984313305919   10.27717841382615
H         2.09840289420350    3.69480108177575   12.66472227068299
H         4.40892591270930    3.70456591352169   11.84246433675374
H         4.87432190238493    3.98460630189917    9.43425960708617
H         3.00240217561619    4.24836862597078    7.84634894106500
H         0.68731198012323    4.22696378322466    8.65356041376207

