72
CSD_code = IKORAC | q = 0 | S = 0 | Stoichiometry = C35H33IN2Pt | MND = 6
Pt        1.70695752282666    7.32163587130506    2.77980664420843
I         1.20957482512042    6.68653344853640    5.37919160534243
N        -0.07132239139615    8.68553496022356    2.89388337915230
N         2.61556642952517    9.31651456463905    3.51989552896654
C         3.39037269366444    6.13602923122134    2.70417976644717
H         3.15968335920552    5.10145226191852    2.44345962290786
H         3.84449569079729    6.13548702981221    3.69628183361573
H         4.12149388746401    6.51444042232847    1.98730035037980
C         0.63585464808218    5.74194290979682    2.01319659570484
H         1.13662815361031    5.22300281675444    1.19644027070288
H        -0.31207779864784    6.13321970598605    1.63154152682953
H         0.43023849215506    5.01898897500831    2.80470326530275
C         2.05564001805922    7.88183833145417    0.82296514485460
H         2.45252192044276    7.08778619323029    0.19341786046893
H         2.77616446823279    8.70212284031848    0.81037482670347
H         1.12602780491894    8.23159314885996    0.36746741917631
C         3.78159267585242    9.80015092896035    3.46579928991373
H         3.94396621926863   10.87348955057011    3.65132569752735
C         4.98400190979322    9.00775140946643    3.19095158066270
C         5.47172820392555    8.12399310464983    4.16545758597238
C         4.86269857433973    7.97886008692542    5.43883588861634
H         4.00020492341617    8.57967719506404    5.68178875564202
C         5.34046669221864    7.08423218853893    6.34671465141647
H         4.84958753704863    6.96913275016770    7.30082738746234
C         6.47012647136050    6.29456878275240    6.04817076018078
H         6.82799417684157    5.58864954062059    6.78271123527750
C         7.10262999877599    6.42675336886478    4.85070096608047
H         7.97610867086848    5.83526121985346    4.61640442232588
C         6.63252785288588    7.34128895041732    3.87333799218869
C         7.26321706158833    7.48315415612888    2.64150389684049
H         8.13065213184778    6.87691842882892    2.42023631571147
C         6.80358570870667    8.38372067808633    1.68520246903482
C         7.44348001398001    8.53372241232932    0.42851014882275
H         8.31535179074310    7.92893876591447    0.22442845752826
C         6.97292020486960    9.41203247718394   -0.49823507696793
H         7.46441276193469    9.51884040318974   -1.45386752460200
C         5.83508227200023   10.19659587850222   -0.21913781439592
H         5.47906820903252   10.89251282334019   -0.96475416959306
C         5.18994596344963   10.07835219062741    0.97394259552182
H         4.31781466963579   10.68362277134751    1.18088344143203
C         5.64628563029653    9.17282654380751    1.96624430397198
C         1.52710163053644   10.18228251327010    3.89137326726001
H         1.84690870545263   11.23389641605268    3.95461957152458
H         1.17281617547509    9.86720295974099    4.88113701859886
C         0.36429231492147   10.05716168776323    2.90048547176353
H        -0.43577865956220   10.74937150097123    3.19376023706421
H         0.71347984364439   10.32295670324450    1.89627744715860
C        -1.27519559391807    8.38102137133677    3.14375512291835
H        -1.50817254931662    7.32110328349026    3.21809790592075
C        -2.40291112031351    9.30295862359201    3.35621596658461
C        -3.00636179348938    9.34997309669830    4.62298794519226
C        -2.52853141148572    8.58013030597852    5.71454886377853
H        -1.67668926465516    7.93229692108853    5.57612935556275
C        -3.12926469368909    8.65447012773710    6.93458839290286
H        -2.75571190702499    8.05970926258618    7.75386277254059
C        -4.23383500489366    9.50640315017200    7.14166920140969
H        -4.69283369959984    9.54744556983522    8.11835839949880
C        -4.71202339036832   10.27128116412247    6.12235680023201
H        -5.55329427964959   10.93298701725829    6.27161483547068
C        -4.11663634490481   10.22489680907404    4.83594464439901
C        -4.57640907752145   11.01376267147452    3.78550671415808
H        -5.41101774130538   11.68049630929576    3.95236656076391
C        -3.98962838658705   10.96547617232751    2.52460783660846
C        -4.46295061000831   11.76275181586414    1.45105337842677
H        -5.29541617269357   12.42585371598700    1.63760702062050
C        -3.89189899400109   11.69095194938346    0.21827598369160
H        -4.25822066673002   12.30122894966524   -0.59373942073786
C        -2.82094299847522   10.80397889624653   -0.01592031062444
H        -2.39288871202764   10.74419258841058   -1.00574957136692
C        -2.33530122441847   10.02376900416980    0.98845636570997
H        -1.52907814783587    9.33140704751862    0.79279692304032
C        -2.88387627428993   10.08811307810443    2.29606640260623

