90
CSD_code = IKOSAD | q = 0 | S = 0 | Stoichiometry = C37H48ClO2PRu | MND = 5
Ru        2.11898856235761    5.33840015575890   11.87938176758407
Cl        1.44321719381365    7.01215159743269   13.30609215016739
P         0.08475172603275    4.39884825400561   11.60329825948571
O         2.78199892467885    3.49532029026552   11.23519956647952
O         4.19942774865959    6.29710162664485   11.75584014499573
C         0.53000333922855    2.82942704412955   10.83475365728824
C        -0.36125671848530    1.86880872724108   10.37187530329515
C         0.11235347664292    0.68414827482427    9.84404964319024
C         1.48345780636599    0.45641903425046    9.79594155855876
C         2.37927555978560    1.39166863186299   10.26178369593265
C         1.92888095742317    2.61726693178271   10.78994500869086
C        -1.11716439167357    4.04581189616147   12.96418718573720
C        -0.62517083597949    3.19654782547445   14.14663292673114
C         0.81062431989979    3.57985378339006   14.49572537996997
C        -1.53332489291017    3.48275695152781   15.34835985633416
C        -0.69189177141508    1.70580752920178   13.81232802760072
C        -1.03594318763645    5.28095854228615   10.47575615725456
C        -1.50915133675514    6.52169955718836   10.89922403214399
C        -2.34492245968450    7.26148902221529   10.08523565161265
C        -2.70799604845731    6.77361962309329    8.83903086564375
C        -2.21761765653128    5.55438710752141    8.40322906134505
C        -1.37720779700194    4.80996165312865    9.21394513846445
C         4.17631358911124    7.24867219314554   10.78355575865632
C         5.15820255819184    8.20248514045301   10.56097982544575
C         5.00887180087315    9.12989191880041    9.54261965944002
C         3.88369728243947    9.11760118157652    8.72955626317396
C         2.89336793811959    8.18731349324732    8.94511818881480
C         3.00276713840002    7.24030667038005    9.97924316131878
C         1.98175861899597    6.30102335503439   10.25114712073031
C         5.44006674907648    5.79294379835645   12.26139955121891
C         5.33422013519858    5.72489399484247   13.79786183841965
C         4.99740950804323    7.11638245152162   14.34764547897768
C         4.88663578071909    7.09467841384104   15.86793034091695
C         3.81199223870528    6.10175103266776   16.29507513353550
C         4.16386500426750    4.71002787049431   15.78273120323994
C         4.28940175402745    4.71005157399400   14.26279564295069
C         5.75233094518470    4.45666949309949   11.55656836747996
C         7.05871337199741    3.84128377596972   12.05932224812804
C         7.35360952298386    2.53010581302698   11.33523129223101
C         7.43648392918888    2.75121095864734    9.82963721611967
C         6.13463099316500    3.35920402884631    9.32178353968296
C         5.83183747496075    4.66958625554576   10.04053275434341
H        -1.42550675465676    2.05138833236985   10.43945957123691
H        -0.57537376147926   -0.06328004302208    9.47888586800628
H         1.85439370681629   -0.47406342184256    9.39028018783585
H         3.44255680628809    1.20348400526353   10.23000113225198
H        -1.40442063655475    5.03900427097340   13.32761782455532
H        -1.99954164748258    3.59157123194810   12.50044536630896
H         1.14135978800174    3.05261971548356   15.38888031418151
H         0.87760717580751    4.65348915632914   14.68002145854281
H         1.48124153528519    3.30107392272890   13.67237762075073
H        -1.24868859990421    2.86099772829984   16.19424515560171
H        -2.57180962091943    3.27053291113739   15.10297708506528
H        -1.45484306894384    4.52509119957737   15.64897902314963
H        -0.37455651397439    1.11596958588744   14.66983718567857
H        -0.04272710043938    1.46719367280181   12.97365889071016
H        -1.70783948329522    1.41293493482977   13.55584849754840
H        -1.19084271616955    6.91116179190676   11.85730991820422
H        -2.70809410743734    8.22332182011116   10.41628917540011
H        -3.36163341805294    7.35146447230494    8.20215513048369
H        -2.48485524212223    5.18291136210440    7.42447383665839
H        -0.97650334329167    3.86958805123149    8.86397679357583
H         6.04055699177009    8.25455307146727   11.18021448189668
H         5.77916742200580    9.87013260959404    9.38807097846460
H         3.78397807349871    9.84276233475345    7.93632402749370
H         2.00452653115497    8.17587518287807    8.33123287257942
H         1.15291547946501    6.27934321163059    9.53895326287064
H         6.24220115506125    6.49798783411613   12.01535255197502
H         6.31437321226951    5.42995060188136   14.18897801521546
H         5.76739698206251    7.82973774736942   14.04027265183173
H         4.04253478880211    7.45057239866342   13.93403368654439
H         5.84747904696331    6.80851790426157   16.30530239919089
H         4.63708913988493    8.09409369114401   16.22862226409916
H         3.72020883816884    6.08853952866679   17.38304791335867
H         2.85272355554441    6.41305866093555   15.87608955310143
H         5.11528262102713    4.39174632402594   16.21949740356988
H         3.40074389990563    3.99220904990962   16.08938742862635
H         3.31038161460882    4.97881123937450   13.82477377560227
H         4.55577874462081    3.70728419937474   13.92151364159045
H         4.92569500389915    3.76368694577488   11.74203834574137
H         7.87892317269127    4.54409066747089   11.88718281643918
H         7.00208361069336    3.64708128196303   13.13147091525095
H         8.29113979530308    2.10956407546539   11.70589869597356
H         6.55695936835122    1.81462047694365   11.55147018713813
H         8.26615370256946    3.42641715116230    9.60599406996275
H         7.63064774787057    1.80356238468962    9.32300952939078
H         6.19663541361440    3.53796222818305    8.24624017826203
H         5.31172060934708    2.66396282374456    9.49738338980213
H         4.87651565070241    5.05243644162593    9.67294433249117
H         6.60935597866326    5.40464775963867    9.80913097246512

