89
CSD_code = IKOSIL | q = 0 | S = 0 | Stoichiometry = C34H50ClO2PRu | MND = 5
Ru        1.02777884990055    0.84186767702867    9.82410968601642
Cl        0.68835837191339    2.67656815869513   11.17699998622706
P         0.75861025981205   -0.86056240985040   11.34564443939871
C         0.51850828747756   -2.26728332387244   10.21978818129364
C         0.43854857903468   -1.87235271404603    8.86278562779844
O         0.58121406690543   -0.63283550315277    8.48914562600132
C         0.18491726966121   -2.86572761558401    7.89830184430193
H         0.10480269630810   -2.56708106722089    6.86306096325059
C         0.05734439480918   -4.18556135371390    8.26542053691952
H        -0.12803940677781   -4.93301334279814    7.50735143490382
C         0.17021631025603   -4.56631842134009    9.59613410265870
H         0.07736104116611   -5.60526547297860    9.87415138223021
C         0.39537793465716   -3.60735271671085   10.56523317131204
H         0.47298536095282   -3.91040842019263   11.59824812031982
C        -0.90802286300530   -0.71132468347107   12.23551215179524
C        -1.82613882696732   -0.10378945279653   11.16846772131942
H        -1.78931173182858   -0.68368472379821   10.24127876337857
H        -1.52583164168221    0.92901489086076   10.97634911909745
H        -2.85880409665028   -0.09053522805125   11.51671341502326
C        -1.50189347902149   -2.04157923020716   12.69311999347687
H        -2.47152801957409   -1.85342772009595   13.15424163156907
H        -0.87610242615462   -2.53903936424368   13.42668642316590
H        -1.65357656747260   -2.70950217062791   11.84795389838070
C        -0.79780998715723    0.27127731220339   13.39997299778318
H        -1.79534362257637    0.56049193353847   13.72981400374733
H        -0.26867506142333    1.17081048212832   13.08617399225328
H        -0.28041815705056   -0.16597460064323   14.24964821366364
C         2.14294145138131   -1.33524985919880   12.53999297474357
C         2.68314700365142   -0.02564303868477   13.12490210401355
H         2.01647524606997    0.35574814004527   13.89372123327716
H         2.77211844241123    0.74055446336906   12.35638181854429
H         3.66089923324923   -0.18819121310228   13.57595546478024
C         1.77625203682645   -2.26648400685244   13.69463592338885
H         2.68224799036966   -2.48109569272999   14.26185242937429
H         1.37634729723471   -3.21343712937054   13.34351987082764
H         1.06298552498488   -1.81004862475694   14.37472043547555
C         3.19789947158137   -2.03014569493919   11.66881767673818
H         4.17852525853686   -1.97158218667517   12.13791222268485
H         3.25027746512070   -1.57376098025795   10.68139848677210
H         2.94712371819044   -3.07958573040695   11.52993396596884
C         2.92444474312700    0.97895575577005    9.78053530045244
H         3.66989640984144    0.40832762753960   10.33560963189761
C         3.46224302160315    2.06229918920493    9.04166907040869
C         2.62553336502848    2.80613874060395    8.16582756260322
C         3.13057614011834    3.91570833929688    7.50501778182312
H         2.50460785834183    4.52259304723693    6.86892468281469
C         4.45661594112811    4.28142464538858    7.67126958448768
H         4.83123903963957    5.15197418617845    7.15454199271974
C         5.29797097154240    3.54434188228110    8.49245231555561
H         6.33120291585579    3.83488388817929    8.60663184841609
C         4.80776779391740    2.45124736089892    9.16939038068008
H         5.44865544547967    1.88115553118035    9.82618780871514
O         1.34686494856737    2.34785158823451    8.08563380039512
C         0.56717216056342    2.56942601953530    6.90557764419388
H         1.02721765173112    3.37166191324982    6.31747666917904
C         0.59005529913051    1.28850558680199    6.04542954509820
H         0.16468521198669    0.46795208254717    6.62978310264882
C        -0.20699384198571    1.46387226795040    4.75254695914703
H        -1.24978807275519    1.69549985529463    4.97544443577835
H         0.20880755469411    2.29893034283804    4.18141150413523
C        -0.15340798800034    0.19453224810345    3.90633662860894
H        -0.61751631173609   -0.62522323055824    4.45960178582624
H        -0.72451253513461    0.34270286808543    2.98703968074376
C         1.28796825838926   -0.17334813722916    3.57515702109832
H         1.73822479077610    0.62300250188501    2.97740466938836
H         1.31312229908600   -1.09083424649067    2.98349204376090
C         2.08566459786983   -0.35735691978788    4.86063309009141
H         1.67070854368900   -1.18841786600069    5.43425288021320
H         3.12445505636974   -0.60021237413729    4.62708726255523
C         2.03694148426955    0.90498768198654    5.71494317133511
H         2.52727300928114    1.72752311057670    5.18441693201860
H         2.58605331421589    0.71716615288810    6.64112520817173
C        -0.83112782283304    3.05206850028879    7.33904767630231
H        -1.40188729277804    3.29209416542722    6.43527641102364
C        -0.69297098566825    4.33168810697351    8.17278876274275
H        -0.07261257045938    4.13141948665896    9.04979201279279
H        -0.19747340703943    5.10489376569954    7.57878462456781
C        -2.05295464710700    4.83239038699000    8.64539740052690
H        -1.92071839414404    5.73831424213104    9.23968960237875
H        -2.67617160183470    5.08297954438406    7.78219994319771
C        -2.73919056824160    3.75617450766544    9.47848908075415
H        -3.70825056952473    4.11281944182673    9.83362715730950
H        -2.12025432435035    3.53296337069672   10.35058927180929
C        -2.92158561244522    2.49569124056233    8.64072395019103
H        -3.41443079391892    1.71848719547264    9.22938269529158
H        -3.56395840273428    2.72073613056298    7.78413376026275
C        -1.57910477052846    1.98162195724080    8.13254802482029
H        -1.74240990906342    1.09681165379527    7.51354861789162
H        -0.95391507908129    1.68708529859220    8.99307697929852

