96
CSD_code = IKOSEH | q = 0 | S = 0 | Stoichiometry = C39H52ClO2PRu | MND = 5
Ru       -5.99576872552911   -0.80628320014900  -22.70289991288239
P        -6.89956302752171    0.44652739871851  -24.37344334159378
Cl       -4.43399521310841    0.65202228238092  -21.83006312261299
O        -6.82734701484280   -2.35211086750964  -23.75761394910917
O        -5.45855783554990   -2.16019537042132  -20.90159696956200
C        -8.04373940272424    1.71757837822198  -23.73485351902537
C        -7.57653944252970    2.50026773578738  -22.67661923614218
C        -8.38018227518343    3.47397460911670  -22.11549615258598
C        -9.66784123987716    3.67033044933449  -22.59019106152688
C       -10.15206076385514    2.87123343271762  -23.61099236415500
C        -9.34899439543492    1.89551640941454  -24.17849598864557
C        -7.89747661463178   -0.80794020607907  -25.23122284896152
C        -8.79275572603115   -0.62205301495671  -26.28186589099055
C        -9.44346772443856   -1.69694749976473  -26.85482379722853
C        -9.19041895891941   -2.98242294092478  -26.39244126323956
C        -8.30734676316012   -3.19389435377890  -25.36073509982894
C        -7.64864794677419   -2.11508849742066  -24.73797178635639
C        -5.85485124856882    1.42660183479431  -25.63697290402994
C        -5.14980294677110    2.49939793049124  -24.79675383535378
C        -6.78154422442146    2.15478082817822  -26.61299716104464
C        -4.83107351886279    0.50303126984410  -26.37318367032708
C        -5.48017060512029   -0.29282185674361  -27.51286906400508
C        -3.68091527043158    1.31879405204568  -26.98473205469115
C        -4.21615913481723   -0.50137780424550  -25.39531747255503
C        -7.41925494429447   -0.43395421863599  -21.50575929086692
C        -7.22229229147437   -0.80974074151002  -20.15702651784784
C        -8.01781731275128   -0.30631355741873  -19.11248694768519
C        -7.75788454603591   -0.63845308441874  -17.80257711315468
C        -6.69775888301816   -1.48216084018360  -17.50017966214574
C        -5.90769461979934   -2.01591991103518  -18.50551444811347
C        -6.16426108076130   -1.70243398312712  -19.83161413608779
C        -4.85226339427402   -3.45634908394491  -20.86767637092207
C        -3.40746459090683   -3.32369904676232  -21.38797266390351
C        -2.63715366924208   -2.32894412225899  -20.51110288419815
C        -1.20353584659330   -2.15604247234494  -21.00028935209511
C        -1.20194083492488   -1.67352819219711  -22.44613416927717
C        -1.93004764141139   -2.68293880934556  -23.32587450022222
C        -3.36554642341122   -2.87453332768999  -22.84847219629608
C        -5.75390517000566   -4.43945981829048  -21.64340254991794
C        -7.15203642842343   -4.46495113482667  -21.01407869870152
C        -8.06690589672921   -5.44209593743075  -21.74434763162281
C        -7.47047049737080   -6.84440996544415  -21.75011154989184
C        -6.09032007502653   -6.81761884583347  -22.39581861434601
C        -5.16695499628043   -5.85142674983480  -21.65819588373531
H        -6.58760146098047    2.31573716396053  -22.27793126813010
H        -8.00546709968756    4.07444527256008  -21.29969411898797
H       -10.29711861889649    4.43178929643993  -22.15332374363080
H       -11.16361935501582    3.00283253271892  -23.96716330227947
H        -9.75255785771610    1.26255726181281  -24.95216224432193
H        -8.97790815358105    0.36610600208717  -26.67465304133503
H       -10.13847519430776   -1.53781078180827  -27.66533443449705
H        -9.69048421115710   -3.82467609066330  -26.84868122198091
H        -8.10182166539791   -4.19155468788132  -25.00118486987999
H        -4.51432100218949    3.12267550825058  -25.41957088871807
H        -4.54657317130037    2.06471376472200  -24.00198543073845
H        -5.89056119088613    3.15248120936679  -24.33983448263132
H        -6.19648319269649    2.81795139344529  -27.24856124907208
H        -7.49620305542630    2.76630746298249  -26.06427234409614
H        -7.32791145247797    1.47046680244816  -27.25178074053986
H        -4.77373946668558   -1.03525381074821  -27.88022588399767
H        -5.74308540279685    0.35189208315813  -28.34707330820590
H        -6.36992231317296   -0.81675735540907  -27.17524119399071
H        -3.09106888291324    0.67341443106815  -27.63273051110296
H        -3.02027284251304    1.71172336562175  -26.21751843623719
H        -4.05364827648515    2.14229558032584  -27.58842681680023
H        -3.38865573257434   -1.02434648861313  -25.87300656669815
H        -4.95760650205907   -1.25867203829031  -25.11058101120592
H        -3.82742065082421    0.00629173829059  -24.51074699161421
H        -8.33509746254611    0.12309185856932  -21.71637443598195
H        -8.82650605412744    0.36530914270392  -19.36158702706989
H        -8.36968604760294   -0.23667168587912  -17.00920888484880
H        -6.47843976452299   -1.72688310642282  -16.47188657104388
H        -5.08272313149580   -2.65622495863857  -18.23241111511008
H        -4.80373064419345   -3.80166709080792  -19.82822118298572
H        -2.92497889753439   -4.30327178920647  -21.30005325177971
H        -3.13519232377196   -1.35687677596725  -20.54005798591905
H        -2.63533842345425   -2.67677272399747  -19.47418816444886
H        -0.68625758526256   -1.43528500393340  -20.36428939663980
H        -0.67184876179555   -3.10931433459488  -20.93080926543117
H        -1.71018565873683   -0.70820948048514  -22.50103215430493
H        -0.17731990773569   -1.53820635373333  -22.79851813281784
H        -1.92772495267274   -2.34720772910033  -24.36485810082153
H        -1.40770656082115   -3.64342482275769  -23.28567085036278
H        -3.86581419025052   -3.60750078781331  -23.48513161185399
H        -3.90066262377844   -1.91392058287804  -22.93562577036658
H        -5.86631660547115   -4.07617373541216  -22.66965273450559
H        -7.07803078813878   -4.74898548412380  -19.95926751127708
H        -7.59661513697904   -3.46817642023282  -21.07158666070483
H        -9.04757173975557   -5.45153872549463  -21.26372644312958
H        -8.20297129525394   -5.09728579793701  -22.77091204018059
H        -7.38535522896147   -7.20947236278911  -20.72354381320250
H        -8.12496681750566   -7.52799633983991  -22.29498281742751
H        -5.65275373083349   -7.81853085901706  -22.39012518676201
H        -6.18488463086588   -6.49938245285514  -23.43656294260614
H        -4.19125142926214   -5.85393776124222  -22.14679300321839
H        -5.02941369305827   -6.19564060849337  -20.62905119701548

