76
CSD_code = IKOWAH | q = 0 | S = 0 | Stoichiometry = C25H45P3RuS2 | MND = 5
Ru       -0.05375447171280    4.54493073214383    2.59907083046567
S         0.15573182976824    6.92045668972700    1.88399313718339
S         1.44676502637357    4.26747037344061    0.93936531787200
P        -2.28630927560892    4.88402849695146    2.21530483920942
P        -0.11697019032443    5.30607517140860    4.76884505381062
P        -0.13047659389271    2.28307744259331    3.09253981938216
C         1.58941941331385    7.15476384895949    0.87988366848194
C         1.43670640072110    7.39823011282513   -0.48894831861295
C         2.56412286657793    7.62965163900812   -1.26151966523697
C         3.82744611838885    7.61854809298639   -0.70113877501848
C         3.97024580325318    7.37340523934706    0.65170922662577
C         2.86517925665810    7.14674863902401    1.45649683170618
C         0.08383505094727    7.37272556719096   -1.13058014404846
C         3.04696903831124    6.87625622834066    2.91705745395671
C         2.20997111378929    2.76779003432584    0.45201387416346
C         1.68821402706493    2.03054295036057   -0.61687738899496
C         2.33856501524872    0.86911942830199   -1.00577543506457
C         3.50165922064693    0.46108594812104   -0.37731740328274
C         4.04341992582169    1.23227383926062    0.63627404805587
C         3.41738452510008    2.39529226895305    1.05743457571245
C         0.47499319634265    2.51382615050385   -1.35222881364969
C         4.01805381913463    3.25697840451444    2.12480484852146
C        -2.56938348198957    4.79738988507468    0.40799649500349
C        -3.04824991915442    6.51109715475575    2.57673310729777
C        -3.65506703136134    3.79843204237929    2.79754685560159
C        -0.00422008322218    7.10445070302811    5.08364506759790
C        -1.52535689056093    4.95606835957859    5.90440223125385
C         1.26848130777510    4.70032807642394    5.81828581938816
C        -0.75137305569165    1.18703013376695    1.75640326031730
C        -1.17548785671339    1.68100886042710    4.48481633372853
C         1.39246754805509    1.35196503120844    3.52981129556889
H         2.44672911894110    7.81447469216418   -2.32074951851683
H         4.69817441081456    7.79509030855312   -1.31644623641914
H         4.95675297632640    7.35911014227958    1.09622735559478
H        -0.23832213600788    6.33596346372228   -1.24806680939170
H         0.11030914722559    7.83801271861762   -2.11353330204378
H        -0.64478906385121    7.88660016147996   -0.50609797335736
H         2.79275203512160    7.76481002773153    3.49723809334584
H         4.07535801714658    6.59877380322992    3.14024457713952
H         2.37819501823670    6.06384300314093    3.22764743582399
H         1.93215795210517    0.28558820763573   -1.82040039086309
H         3.99644190520965   -0.44671328672119   -0.69014685300377
H         4.97031271269536    0.93265779958143    1.10567781197757
H        -0.22841308865451    2.98627859228392   -0.66623916469849
H        -0.02047766356887    1.69907422160115   -1.87772937084335
H         0.77048567118724    3.26938810265704   -2.08248800107905
H         4.39148761233340    4.18105182990796    1.68080888131574
H         4.83892806114174    2.74818047933946    2.62581606075105
H         3.26233516746051    3.53824053469432    2.86309423487685
H        -1.91106630484774    5.52807783859231   -0.06117857889514
H        -3.60876160304138    5.02118830772801    0.16549690248273
H        -2.31234741128491    3.80129704093006    0.04602333402765
H        -3.14419864292837    6.63964402545479    3.65376958830344
H        -4.03155807344485    6.57021505954491    2.10967458079044
H        -2.39648170779717    7.29024496570929    2.18548158932775
H        -3.45510449010299    2.76525613517667    2.52015400077242
H        -4.59022999969686    4.12123092081032    2.34011887936646
H        -3.74161847761937    3.86869848798337    3.88041820860539
H         0.91991347841007    7.49131906392067    4.66423629924266
H        -0.04221726183644    7.29451826040969    6.15676850602611
H        -0.83330727097235    7.59772892750005    4.57904994421886
H        -2.41621813354133    5.44249944671174    5.51021713983240
H        -1.30375114979783    5.35416019310625    6.89461606860438
H        -1.71070491682218    3.88858230090039    5.97582365387635
H         1.19756407631365    3.61721947296916    5.91428805675183
H         1.22427378557359    5.15947145216223    6.80598945384884
H         2.21705897173524    4.95018130295768    5.34361413660699
H        -1.70481773381350    1.56090886418295    1.38509770666630
H        -0.87372453131755    0.17022026154909    2.12986145873923
H        -0.02897861905080    1.18389890805726    0.94184335456248
H        -0.71093415909726    1.97479278230205    5.42466759670104
H        -1.24359929895473    0.59410751698741    4.44614669892999
H        -2.17127506477595    2.11111187227881    4.42617831655271
H         2.06604103405970    1.32473758355245    2.67541417799297
H         1.12517632945057    0.33226753335981    3.80857150891083
H         1.89716766827066    1.83724912833929    4.36455253954309

