91
CSD_code = IKOWEL | q = 0 | S = 0 | Stoichiometry = C42H45P3Ru | MND = 7
Ru        6.54761117242290    3.79820477196528   17.51799767036812
P         7.29652441940799    2.31155297566928   15.95296009277895
P         6.62174028222860    2.02351805803340   18.88536889917769
P         8.47473939172367    4.35879014353573   18.64709148764582
C         4.76035960372439    4.58454999267012   18.41277012696960
C         4.43049486131990    3.62526360600192   17.40245902725530
C         3.78769267806611    4.02741866296505   16.08861420151548
C         4.63232427466927    5.04834184218862   15.31062757808421
C         6.08909825655488    5.06049702831607   15.73854918520216
C         6.56340185645504    5.87933378301880   16.76794564246955
C         5.66554120574773    6.79978759514202   17.57144045057952
C         4.47214742865471    6.06703812843139   18.20231553142047
C         7.53125601294193    0.61037204441514   16.69287080476505
C         6.63514625502796    0.44827347247677   17.91122210356903
C         8.22326605019980    1.90167191834040   19.82607020254573
C         9.27609407645849    2.75250807494494   19.13262741654128
C         6.23157385653797    1.92241485459543   14.51624788343409
C         5.11544833404541    1.10540588494791   14.67162386483752
C         4.26057473970801    0.86979943542416   13.61167179957375
C         4.49548451195379    1.46648784708837   12.38364830796753
C         5.59048062466667    2.29890779424080   12.22462709319440
C         6.45245997534114    2.52683880566033   13.28155738426044
C         8.87199664401459    2.45985853492318   15.02700643589911
C         9.42144057902624    1.40079587268183   14.30951419825273
C        10.60024348338081    1.57818026564592   13.61032661475981
C        11.23043024839060    2.81362208265518   13.60312137195431
C        10.68050592539067    3.87461771000961   14.30137671294005
C         9.50908071482602    3.69278288829410   15.01500370514267
C         5.44191003930190    1.63073336976497   20.22330636871141
C         5.41876098079010    2.51893976656684   21.29860018910030
C         4.51544967357616    2.35911303934006   22.33053234497844
C         3.60846810913424    1.31176584559822   22.29900518359328
C         3.61162015997129    0.43441813827889   21.22896623365168
C         4.51639749908399    0.59329325553025   20.19293790075618
C         8.43270163735321    5.14688162140165   20.31133836060053
C         9.58609184080582    5.31288604600797   21.07324571056376
C         9.51238525259994    5.89499804372383   22.32430570682676
C         8.29284612988778    6.32679868178118   22.82376786637993
C         7.14576398781811    6.18235033986624   22.06305272428611
C         7.21851060138474    5.59551121390990   20.81128145842073
C         9.91964816890988    5.30612850056642   18.04514324177275
C         9.81437757921877    6.69622755466416   18.07774268664745
C        10.83612412800138    7.49288035211675   17.59950716583290
C        11.98279405039653    6.91057358442149   17.08289407616003
C        12.09568622995540    5.53114195910959   17.04513043696873
C        11.06904041729233    4.73092794212751   17.51468019085615
H         4.52773776453382    4.25577161768367   19.43162437326812
H         3.99683352068999    2.68934679395890   17.78400971729982
H         2.78036988825534    4.42332966438127   16.27707622815998
H         3.66598621610360    3.12959020704494   15.47716923867741
H         4.22553171448712    6.05593296174576   15.43739279493161
H         4.58503585254237    4.81212979723717   14.24425551422238
H         6.78040758677630    4.87817558423765   14.91158586497936
H         7.57138988456436    6.28659037067137   16.63623581807010
H         5.32194519621839    7.61553437614060   16.92096621419411
H         6.26829586069011    7.25453854986069   18.36314245311066
H         3.58197221220359    6.17703490465848   17.57655293138333
H         4.23753600390063    6.53202313213470   19.16468425717604
H         7.32629994708972   -0.16510765954710   15.94794259356206
H         8.58451121585887    0.53752655534259   16.98676508498517
H         6.94217701121598   -0.39388191802589   18.54260925310479
H         5.60174160177089    0.28774760363477   17.58869156775130
H         8.04376100300881    2.29295585403041   20.83273548613453
H         8.52893048771805    0.85289330209320   19.91351298239390
H         9.59984487753059    2.27132043403529   18.20273997950788
H        10.14628525818981    2.91472449317908   19.77576771175778
H         4.90801222586174    0.65929097259651   15.63388961878756
H         3.40234458081733    0.22589717570109   13.74470821773769
H         3.82424821471439    1.28762371743093   11.55638852647681
H         5.77452695287270    2.77367498218513   11.27114369828551
H         7.30916178051566    3.17311335021992   13.14415542323428
H         8.92060279649062    0.44304622280290   14.28973154306189
H        11.02814952810922    0.75197823137215   13.06023622843238
H        12.14775056293742    2.94705476701030   13.04811414786673
H        11.16271143528474    4.84155916576208   14.29523518754834
H         9.07386375124875    4.50889998050887   15.58089190404981
H         6.11788027515864    3.34566851361889   21.31413205816614
H         4.51349492456719    3.05419214752277   23.15790978675572
H         2.89775785589009    1.18428013549026   23.10225804416680
H         2.90136685013507   -0.37949092205475   21.19648495644319
H         4.49363573153544   -0.10277933384016   19.36809025450082
H        10.54447960956358    4.99979931114659   20.68038030722282
H        10.41014926918276    6.01856677847429   22.91350097950390
H         8.24194542240526    6.78245529950050   23.80216106424889
H         6.19500209691196    6.52837277676369   22.44373743581571
H         6.33657379207362    5.47833954138019   20.19642865916747
H         8.92395326736957    7.14584749574459   18.49951295375369
H        10.74252355186632    8.56900087394979   17.63191443472719
H        12.78580180184406    7.53088006189864   16.71208719687352
H        12.98930037313627    5.07244995128299   16.64561040578177
H        11.16893629779762    3.65689884997280   17.46204326352212

