81
CSD_code = IKUBIA | q = 0 | S = 0 | Stoichiometry = C32H40CrN2O5Si | MND = 9
C         0.77904052793249   -1.29139679044269    5.35595684592773
C         2.03391856884290   -0.70133880730703    5.52599201945670
C         2.44080959409082    0.33358612333465    4.63552304246812
C         1.67790149221073    0.61958307301797    3.48888912008950
C         0.46789272584291   -0.08122421485217    3.22194258474095
C        -0.26417554738237    0.09211621919876    2.01726875675469
H         0.15665799752002    0.72645094178750    1.25059120282090
C        -1.45028083264041   -0.54142769305722    1.81857950569245
H        -2.01209317207308   -0.41809432533373    0.90576366156840
C        -1.99466073156497   -1.38579841129832    2.82320204232356
C        -1.27696921177043   -1.60246035340539    3.99038880876820
H        -1.69100393856462   -2.25457351324180    4.74058384529863
C        -0.02624845132084   -1.00981119723353    4.19413009660245
C        -5.06345340739295   -2.48573084364869    1.53110507207850
C        -5.59441276661784   -2.69167319913607    0.25247784596549
H        -4.97629143549351   -2.47661157289236   -0.60576709477547
C        -6.87540964965534   -3.17650248222272    0.10324442936016
H        -7.27433049038745   -3.33976802181368   -0.88801716816982
C        -7.66909474532103   -3.45469141888457    1.21278658912145
C        -7.14190213237612   -3.23794725085782    2.48503445654095
H        -7.75407404798503   -3.44524527537421    3.35187184518048
C        -5.86075954881417   -2.76517507635171    2.65117379076201
H        -5.44928045431230   -2.58679173752517    3.63320652582540
C        -9.07246758110272   -3.94796310623683    1.04873335685104
H        -9.76967482105077   -3.11190170540946    1.11881393183106
H        -9.32695618502300   -4.65968676610201    1.83133944169678
H        -9.20946271869439   -4.42123916751754    0.07942244366530
C        -1.26296237111333   -3.94438293546081    7.70138069160021
C        -1.58372011999008   -5.41654435383993    7.96544230663284
H        -2.36937162561358   -5.50523874737344    8.71460892105553
H        -0.70678630939529   -5.94447016340767    8.33194309753689
H        -1.92307364527865   -5.90901434597769    7.05732320386078
C        -2.54226092648091   -3.23909705106784    7.24068237382624
H        -2.92665233808296   -3.67778593009202    6.32178000722596
H        -2.36002283019280   -2.17909305937332    7.07790307409985
H        -3.31482591074894   -3.33170944777945    8.00335725166418
C        -0.81063478625975   -3.29540223767294    9.01285057612222
H         0.07699549900668   -3.78525359667438    9.40614700938229
H        -1.59875749948090   -3.37051861856495    9.76103690250508
H        -0.58852230859746   -2.24227981434052    8.86035349885242
C         1.73832328549808   -4.64643685918503    6.98809376007377
H         2.10517542769999   -4.20415251222243    7.90989572768975
H         2.53229093611171   -4.58103299506588    6.24802289859267
H         1.57302565122360   -5.70135624966682    7.18189046006312
C        -0.30520769865801   -4.65907555491245    4.71651472283967
H        -0.06466743832225   -5.71714860300610    4.74486486750149
H         0.26251270673895   -4.21950748960147    3.89996665939468
H        -1.35571430361252   -4.57556619970635    4.45602819105874
C         2.87691330631597   -1.13454582646728    6.69764296564338
H         3.93254433948390   -0.94459797821651    6.50313836395116
H         2.74841010866558   -2.20980290656137    6.83000223858166
C         2.45743873063277   -0.43197255299768    7.99089905426267
H         3.06861948465802   -0.77960436679115    8.82059902819596
H         1.41544089693001   -0.64794362051609    8.21263084564846
H         2.57082444413276    0.64636518800639    7.90089748878081
C         3.77937837810650    1.01273752275089    4.77903711733187
H         4.06282275800547    1.08993830709678    5.82877425890955
H         3.71013476356695    2.02564293541865    4.37970007815515
C         4.85068564710401    0.25460164663731    3.99020002199472
H         5.81653834942170    0.74076846877171    4.10369351632406
H         4.58916730592047    0.24237639858237    2.93469959167413
H         4.93740085366705   -0.77393443817631    4.33571772751342
C         1.59097331295534    2.82283718622680    2.59301514992333
H         1.66619295549425    3.23720807718230    3.60966570873794
H         0.52684697353402    2.77320910050505    2.32819938378910
C         2.34660032659498    3.68827681666059    1.59941973816912
H         2.26987056336716    3.26562500608313    0.60113174623704
H         3.39743033182391    3.74134869672464    1.87130316352927
H         1.92764182876938    4.69001569079072    1.59641412150209
C        -0.75479043807545    0.72421283134973    6.80916133339792
C        -0.71348144206621    2.25168428014870    4.87214125839506
C         1.05770968743567    2.26985745599322    6.40633225310381
Cr        0.39660201054160    0.90719653043809    5.40585990437325
N        -3.21642554450952   -2.00060943410242    2.73596245882906
N        -3.79551822491778   -1.96091644313835    1.59628413000371
O         2.16999838931382    1.51797545145912    2.56615708346440
O        -1.45332365059705    0.65552488391852    7.72341105246867
O         1.41455578658449    3.17216978420251    7.03786208548429
O        -1.40223314516319    3.13779413741431    4.59774605022202
O         0.33326425160378   -2.19329862524059    6.25932703282554
Si        0.12510422929912   -3.82085686636498    6.37765084855047

