77
CSD_code = IKUBAS | q = 0 | S = 0 | Stoichiometry = C32H38CrO5Si | MND = 9
C         8.15440298666707   -8.35006521763699  -14.26395884636713
C         7.16147084041913   -9.23931052907466  -14.62510649911855
C         6.10416392115802   -9.51645485282024  -13.72728394178450
C         6.04896070024158   -8.87369276040017  -12.50627180776245
C         7.04127994021034   -7.94170031217281  -12.12486134702266
C         6.98430375629844   -7.21939446581682  -10.91126948560223
H         6.12299320783247   -7.35271416067491  -10.27389720634828
C         7.97317040463813   -6.35072077624839  -10.55671988157716
H         7.90625460223914   -5.81391595601827   -9.62232100637454
C         9.10666280674993   -6.17201337700864  -11.38294875997389
C         9.16570637128388   -6.85684327475225  -12.57942526187228
H        10.01925651719965   -6.72923762763728  -13.22429491133529
C         8.13212890079462   -7.70730169321479  -12.99858041344895
C         9.04543646569348   -5.12923584379751  -15.35557273612966
H         8.15794963186621   -5.21922829359775  -14.73468357099351
H         8.82691185377361   -4.40550604614974  -16.13404494714170
H         9.83126156942216   -4.70340400952678  -14.74010420329127
C         8.54358245318885   -6.97578519167211  -17.74233952153414
H         8.76371414748163   -7.89884416059968  -18.27083881082403
H         8.78337321994743   -6.15636345186828  -18.41203633535923
H         7.47170014833303   -6.94332792296724  -17.56531420266080
C        11.40645048317425   -7.02457084114874  -16.40066499762866
C        12.18684271466165   -6.94351171982020  -15.08619656468001
H        12.04904243386171   -5.97278426725737  -14.61557744989059
H        13.25261022190880   -7.07642514094069  -15.27248627024290
H        11.86411547814807   -7.72395251537163  -14.39993959219347
C        11.89844374139349   -5.90790889545173  -17.32117020494652
H        12.96593256427067   -6.01453164816118  -17.51130681788673
H        11.73016558035323   -4.93478390115501  -16.86781294488298
H        11.37996951051766   -5.93650231864229  -18.27630473959160
C        11.70305784299158   -8.37537034183724  -17.05735291878756
H        11.22479296399576   -8.44556484520983  -18.03128503596068
H        11.33927382477960   -9.19018287623556  -16.43607718706528
H        12.77644005373563   -8.50250919643015  -17.19727562158276
C         7.28069532002402   -9.94714703505095  -15.94795143284986
H         7.75997322087326   -9.27754959565790  -16.65962975737813
H         6.30140196392785  -10.21505731310428  -16.34015136928928
C         8.14527715140750  -11.20197497902727  -15.80462217853806
H         8.23672941221173  -11.71103744445448  -16.76152201097418
H         7.71215035264991  -11.89205215408839  -15.08328844109342
H         9.13922237521086  -10.92781507853327  -15.46049247233829
C         4.98039465677226  -10.44429712642849  -14.10581861221881
H         5.34388303747713  -11.26262454441357  -14.72629399606561
H         4.54625400858658  -10.87231556373661  -13.20215914383122
C         3.88162896499988   -9.67260777544240  -14.84047755941808
H         4.27260097540035   -9.19539742755289  -15.73628830231291
H         3.48024001393886   -8.90026115687066  -14.18933981599849
H         3.07430396789437  -10.34349693021265  -15.12590345819362
C         5.32103038091644  -10.05293249361441  -10.61328785404434
H         6.17388380882222   -9.71591121485217  -10.01483252640511
H         5.55822494629091  -11.04058528010043  -11.02642493111110
H         4.43785359876429  -10.12848783696037   -9.98062553798558
C        10.20067348715317   -5.28873359871520  -11.04162835608429
H        11.11072287500993   -5.46238498632705  -11.60294415820219
C        10.14913599461872   -4.25179245230348  -10.19149909950038
H         9.21807425546008   -3.99763789346190   -9.70099278005525
C        11.26368674571557   -3.35727671670610   -9.93782142997958
C        11.03046316127991   -2.02917516971809   -9.54006767286831
H        10.01147676975871   -1.69623200660790   -9.37544076382403
C        12.09587899684909   -1.15548098655578   -9.26160332096112
H        11.88866956983606   -0.15831380363099   -8.89176425228753
C        13.41211875757435   -1.59525551361619   -9.39195513587629
H        14.23458218772478   -0.94768926708511   -9.11299300990652
C        13.66895459873686   -2.92887871429825   -9.77365359706964
H        14.68803765492152   -3.29744293094148   -9.78150690550192
C        12.61420263599471   -3.78949523900646  -10.05931094969518
H        12.81572559089646   -4.83367237232625  -10.26658087150221
C        12.02368372911031   -2.93373328508827  -12.89499978974909
C        11.39297101338343   -0.74750400089821  -12.30143632373519
C        13.69575053275120   -1.29008734856621  -12.42804223275322
Cr       12.37020049529490   -1.98266852709972  -11.38534393765606
O         9.18284357436916   -8.08729831329705  -15.10903376805162
O         4.99824013031730   -9.13191687229864  -11.63396802635582
O        11.80070036327749   -3.48630249147916  -13.88699421151818
O        10.80785279849352    0.00579339927588  -12.95313825732487
O        14.48146366770770   -0.84952247519452  -13.15086822323629
Si        9.51892039741563   -6.81638905117811  -16.10577948327084

