27
CSD_code = IKUCUN | q = 0 | S = 0 | Stoichiometry = C13H11AuN2 | MND = 2
C         3.32439366941977    5.90250677494150    4.98224274790283
C         3.41189256847505    6.49502510086010    3.93111633855621
C         3.51134273214991    7.19278567541081    2.70305385674693
C         4.72270714846377    7.24091240010259    2.00959206768457
H         5.58557224453430    6.73601388843375    2.42170012255219
C         4.81560871502867    7.92500233219128    0.81369215959747
H         5.75831720823395    7.95703410921959    0.28422412951113
C         3.70717405982270    8.57088384647542    0.28914969664990
H         3.78338386437014    9.10620776005738   -0.64681629710362
C         2.50069564337529    8.52763489196525    0.96995203025751
H         1.63402028078587    9.03068046238602    0.56259672900532
C         2.39943457262273    7.84566626857691    2.16635258901234
H         1.45982553150150    7.81013815541544    2.70042147481491
C         4.09095632617866    3.78772301276009    9.27294842918767
H         5.00712897884678    4.25157956288073    8.93903832441402
C         4.04979087007812    3.10213183727148   10.46307840549991
H         4.93413326758895    3.02185206088342   11.07579075180168
C         2.84810531093030    2.50753733117980   10.87400885915621
C         1.74562277187199    2.66032948252799   10.02100759368700
H         0.79211458179359    2.22784178944792   10.28109439136395
C         1.89053420040487    3.36577617413412    8.85078454059341
H         1.05367909379744    3.49330755957581    8.18044682908900
N         3.03800949580135    3.92551431110110    8.46700491311120
N         2.74994556212613    1.84409472303415   12.04794130498988
H         3.57091389960303    1.67108166358944   12.59898046421810
H         1.90624446667707    1.35203472538244   12.27939994690607
Au        3.18705293551483    4.96050410019709    6.64919760079721

