140
CSD_code = IKUDEY | q = 0 | S = 0 | Stoichiometry = C62H70N3NbO4 | MND = 6
Nb        7.53871586647141    5.39033024177194   11.52442166096199
N         9.12900394150270    5.09395811722511   10.75905523564115
N         6.38129260820110    3.93836661431959    9.28488360983363
N         5.64136869690691    5.91009463010883   13.24955841734932
O         6.98466169305601    8.56258077249429   11.26688309692985
O         6.32782388448909   10.12152145350437    9.70585624577176
O        10.47197541526700    7.18152748745565   12.14719234767903
O        11.07417285762566    8.95507874287172   13.48098267904556
C        10.40450451660077    5.03086134795642   10.37193724794437
C        11.35980894530266    4.28723852879005   11.12044768655635
C        12.69533336512980    4.35760751155394   10.77146928546081
H        13.42781600423205    3.81892734413399   11.35361533381284
C        13.12125997977053    5.10236379017943    9.68447995123900
H        14.17116037373070    5.14711716293797    9.43377857862900
C        12.19170225115960    5.77733818692859    8.91326340709112
H        12.52943032271596    6.34063142685674    8.05587308316866
C        10.84622374922777    5.74802005351289    9.22791483888565
C        10.90232172974512    3.43910979885148   12.28542085153221
H         9.84605094594470    3.19888889323921   12.11756772174007
C        10.99133238632433    4.22306828942674   13.59911778958808
H        10.29411553541319    5.05865411890760   13.57736679317775
H        12.00095062959030    4.60104758506795   13.75276725710093
H        10.73174580923241    3.57790253520632   14.43655621384958
C        11.68596300132746    2.12956304429821   12.40719157785910
H        11.76993910762060    1.63959280758779   11.44101704551073
H        11.16876346609767    1.45576625098936   13.08687829514002
H        12.68572741691850    2.30072300721194   12.80018539351915
C         9.83302921041275    6.51438777640507    8.40948969000598
H         8.84806690654283    6.08002615682666    8.61957043188338
C         9.81056207396134    7.97638519970466    8.86605819085600
H         9.07044528264587    8.54102397595471    8.30045744953407
H        10.78736830473536    8.43432241400208    8.71753357571104
H         9.56045701312643    8.01953923189947    9.92440268301567
C        10.07927774198333    6.42868400177002    6.90316509113005
H        10.20027955313291    5.39331075654103    6.59555296992542
H        10.96793677338520    6.98369458135009    6.61257825843389
H         9.23041398236381    6.85232976444490    6.36911216306122
C         6.64641273325061    6.55894283006920    9.87862719611749
C         6.62478268028939    7.91423799625996   10.09225990388624
C         6.22474029012370    8.86809477473606    9.16106552245733
C         5.81390809992631    8.48653911153214    7.90458143341142
H         5.50954930392228    9.21158772680396    7.16837145380890
C         5.81068922869509    7.12255797283790    7.63745411509758
H         5.48414597241127    6.80588207628291    6.65961378345178
C         6.20407955785969    6.17878612464700    8.58986880880903
C         6.84370120260970    9.93506087096374   11.00582427593067
H         7.82480903729301   10.43372457278334   11.08614359270319
H         6.15484282169688   10.38368983466985   11.74038345441661
C         6.16672099524630    4.74020071489614    8.31297195121185
C         5.85454725065262    4.28785618398435    6.91111645819070
H         5.86845530138739    3.20257784194753    6.84835879556261
H         6.59162320839460    4.69657943276140    6.22246228466305
H         4.87121915550758    4.64339606349117    6.60725999678722
C         6.32754656132759    2.54784307251897    9.10769310277301
C         7.41052529971812    1.84184085298286    8.56491219135180
C         7.26835794153062    0.48206876091745    8.32877729352430
H         8.08977845061938   -0.07118500913218    7.89996659766662
C         6.08862229540940   -0.17564334042322    8.61798026624139
H         5.98426812548308   -1.22820434396942    8.39910696383619
C         5.05199009390128    0.51440260434849    9.21933494404186
H         4.14638011872135   -0.01271575051710    9.47636028082350
C         5.16109082043005    1.86984348569770    9.49181040211682
C         8.73364680258708    2.51903362797378    8.29988046722634
H         8.65513541805343    3.57043379811794    8.59521843119338
C         9.80355374016047    1.87590125926961    9.18410658210073
H         9.47407828477007    1.90062182739805   10.21936766220296
H        10.73562388833557    2.42924010089810    9.10118549370591
H         9.98255063163107    0.84262441830291    8.89538845250902
C         9.14009071966423    2.44025650349054    6.82741864205667
H         8.40596068304493    2.92773867544269    6.19051802377883
H         9.23671525264876    1.40581672104975    6.50568353131857
H        10.10112310571514    2.92983930851712    6.68674471393264
C         4.04420713146504    2.61972632834564   10.17977344157444
H         4.48637881189052    3.50925691905634   10.64918089635023
C         2.98715090936195    3.06659116381003    9.16664039351167
H         2.18014532998636    3.59027037347447    9.67454244122767
H         2.57031971657555    2.20235582658409    8.65259199092243
H         3.41838053718615    3.73190799211918    8.42289135547247
C         3.38956221979330    1.78436741878318   11.27921329686315
H         4.14893636291554    1.34690041883994   11.92248217471618
H         2.78187603704901    0.98490992230967   10.86177037646202
H         2.74531242912728    2.41510917276035   11.88595523055110
C         8.21438431750296    6.84234044525111   13.05465810434735
C         9.43226430006638    7.47771691991270   12.99638563301380
C         9.80317942423945    8.56390132489398   13.79199376557239
C         8.92778153041090    9.09551631851509   14.70921234729675
H         9.19920984555927    9.93431460139098   15.32812349433040
C         7.67334375235122    8.50587233420911   14.78378125793709
H         6.96994594686108    8.92678970138111   15.48471122678960
C         7.31220313296558    7.41804124637674   13.98186513770667
C        11.51566491008485    8.06063545320922   12.47565600900078
H        11.81843709591277    8.63096536351313   11.58398469923285
H        12.38271513732776    7.48975846605269   12.84832924156455
C         5.95810683613112    6.87180016549968   14.03618122120300
C         4.97568629902153    7.49402227350672   14.99347459461910
H         4.02988240320419    6.95572129311829   14.98585859477634
H         4.79279490848945    8.52846419660268   14.70300096821757
H         5.37380593085302    7.49456521090096   16.00642981402060
C         4.35064437734289    5.34361697770298   13.29965619972944
C         3.31256755391853    5.88716940072843   12.53046299264059
C         2.04504943193722    5.33155613256958   12.62834978541796
H         1.23592277908148    5.74533635723452   12.04546202148550
C         1.79636161955846    4.27563882469618   13.48251783554694
H         0.79856060024988    3.87090700661080   13.56898507871618
C         2.83045279553012    3.73713001975666   14.22587525227905
H         2.62624741668856    2.91136917358395   14.88887444795136
C         4.11874752941139    4.24292520980373   14.14006621762879
C         3.54325695652091    7.06874278206303   11.61514084138719
H         4.59993923870485    7.35224068382842   11.66763938063523
C         2.70866553197876    8.27831482470386   12.04422190329353
H         2.94696068902146    9.13602046941983   11.41751454940246
H         2.90676480334001    8.54222995675827   13.08101182334207
H         1.64583174459207    8.07019597922576   11.94506008333982
C         3.22634854017117    6.69418202047505   10.16615548679149
H         3.46028899881766    7.52438624487206    9.50204832517922
H         2.17322240912150    6.44899590620192   10.04997663966096
H         3.81846233698955    5.83402431911971    9.86173948460453
C         5.23155096369956    3.64090876674751   14.96998813633856
H         6.19360204995161    3.95365868373458   14.54218116900481
C         5.15217935186015    4.13364058495473   16.41850514145725
H         5.28863501868560    5.20951142793002   16.47853446447294
H         5.92791546507999    3.65803912679911   17.01469061883063
H         4.18421088723494    3.88549018030134   16.85040332277948
C         5.19220176365853    2.11241473504363   14.95072159564951
H         6.09646355051355    1.71548522557998   15.40595339040289
H         5.13855816289391    1.74734176596836   13.92931038656677
H         4.34059434987270    1.72870487633612   15.50732588301631
C         7.34003349199476    3.36032326560996   12.14273024196095
C         7.44408537367566    2.19654331467515   12.48052604405073
C         7.62493644597157    0.85593629400245   12.90736861546713
C         7.06388110987638   -0.20727121011313   12.19975081038451
H         6.48051221251688   -0.00171325670062   11.31516595400023
C         7.26528849150189   -1.50556341670212   12.62666869214592
H         6.82842483890287   -2.32436002345937   12.07280831329720
C         8.02340999527899   -1.76279973354185   13.75770312397927
H         8.17744268069145   -2.77977957257811   14.08803438426399
C         8.58628626693184   -0.71094916194137   14.46367825942661
H         9.18048843328049   -0.90993278934926   15.34466994724903
C         8.39121506759411    0.59020166767857   14.04505291333684
H         8.82744700409687    1.41621180552969   14.58956331808777

