129
CSD_code = IKUDOI | q = 0 | S = 0 | Stoichiometry = C54H66N3NbO5 | MND = 6
Nb      -11.18477521474248  -16.40252027878948   -3.54613623632244
O       -13.32247401976272  -18.89261841949518   -3.46423385007468
O       -13.38504110312300  -21.12541798347950   -2.89171285644696
O        -8.98075081020399  -13.59441284332740   -3.20514019552054
O        -8.00467475531890  -12.11787786857708   -4.67866756882048
O       -12.81106587267066  -15.82994664943658   -4.23673783513066
H       -13.64147193184678  -15.38787058501716   -4.06305453555467
N       -11.22136726864548  -15.83075289383311   -1.84507931111020
N        -8.58986086955541  -17.19597280237345   -2.95082343694967
N       -11.21863323306279  -17.32502017571850   -5.96669606948912
C       -11.47478536540667  -15.32473076592888   -0.63411265192619
C       -11.45691541455114  -16.15219307604622    0.52238546086257
C       -11.69631193007930  -15.60228111322113    1.76701084348517
H       -11.68443260608362  -16.23318072359395    2.64297211766862
C       -11.95866527700271  -14.25114909809940    1.91653201555001
H       -12.13433654133320  -13.83624523076127    2.89825766290777
C       -12.02553413743277  -13.44252954740368    0.79507522023561
H       -12.27081761177575  -12.39842019540548    0.91785063358151
C       -11.79569440767592  -13.94800112924482   -0.47015136816350
C       -11.27861946435332  -17.63975148077140    0.33221401731895
H       -10.65639263461406  -17.78652495316934   -0.55788008040731
C       -12.65476621686761  -18.25124836275803    0.04231256925537
H       -13.07328501028173  -17.79336210492797   -0.85537603835024
H       -13.33049853007743  -18.06984654160564    0.87665393482048
H       -12.56918110761065  -19.32551902936522   -0.11271220282381
C       -10.61292414420247  -18.35192944378662    1.50771010699335
H       -10.36799337464076  -19.37356576738178    1.22231416682343
H       -11.27305632604841  -18.39563505245912    2.37070063071103
H        -9.69576014063112  -17.84349439137865    1.79475672941064
C       -11.96284162278756  -13.09325482357235   -1.70309830220183
H       -11.35267019486266  -13.54148939149293   -2.49928915439062
C       -13.43205767290975  -13.16021714677603   -2.13897965449111
H       -13.73229039177363  -14.20384009713300   -2.23518780287387
H       -13.57536622201935  -12.65380197264354   -3.09245051738476
H       -14.07000195677627  -12.68786120666453   -1.39328775094123
C       -11.52505067789079  -11.64216339136324   -1.50923930757525
H       -10.53844701093963  -11.60199643789310   -1.05313643625819
H       -12.22249252341645  -11.09906161538613   -0.87512009897758
H       -11.48685425087618  -11.13454152998150   -2.47156507254605
C       -10.94539450966234  -18.51270461950888   -3.02428488363813
C       -12.06115051632354  -19.30808729746048   -3.08623518114388
C       -12.11358980186794  -20.65210498793036   -2.72727333493857
C       -10.98875337722370  -21.28820772858285   -2.25140541374845
H       -11.01140414020895  -22.32333964589000   -1.95347078233571
C        -9.82677977123470  -20.52849815944157   -2.17001255770010
H        -8.93825795162006  -21.01560124942932   -1.79978892119988
C        -9.78945524806385  -19.18480313509170   -2.55526703526216
C       -14.14875139300914  -20.02670429990390   -3.35129608842318
H       -14.58071837897558  -20.27275372341032   -4.33499333320649
H       -14.96088521182295  -19.82567057957878   -2.63261978208348
C        -8.56884222581391  -18.38228490576954   -2.46666368228489
C        -7.35690914565716  -18.98613284428579   -1.80927919388402
H        -6.51521695192792  -18.29866347172982   -1.85204743319190
H        -7.07859281435560  -19.91806129831530   -2.29803713000556
H        -7.58681308598793  -19.20878657047971   -0.76863137190376
C        -7.47278109760339  -16.34237584303044   -2.91654388586833
C        -7.13184048799622  -15.62012389591384   -1.76041406206400
C        -6.03169041891142  -14.77421416446479   -1.80356690492194
H        -5.75321349768299  -14.22608964030344   -0.91600039262524
C        -5.27802665198637  -14.62350938286898   -2.95100905061854
H        -4.42323880116964  -13.96278667307933   -2.96054168623814
C        -5.62453140988488  -15.32796279457681   -4.08755170254813
H        -5.03175129120228  -15.21191312106305   -4.98086891524777
C        -6.71168170783867  -16.18790304523568   -4.08883370658493
C        -7.92330522265603  -15.72208893722072   -0.47764392121294
H        -8.79205456757454  -16.36159095410805   -0.65268804924261
C        -7.07665946804098  -16.31670835013968    0.65209163521087
H        -7.67898088911618  -16.40444027133981    1.55335354740911
H        -6.22686678645902  -15.67531078905676    0.87499903779196
H        -6.69750316771421  -17.30144678833243    0.39259864886062
C        -8.44244644989245  -14.34544098629408   -0.05768883075701
H        -9.02599774443346  -13.91636134574120   -0.86521421881821
H        -7.62377296802800  -13.67246415574190    0.18770710457427
H        -9.08152602282930  -14.44253924516686    0.81599881454754
C        -7.02461921438461  -17.01869198227272   -5.31220471775674
H        -8.09689009089512  -17.24923529421655   -5.29211876870213
C        -6.71371493900666  -16.30155299394621   -6.62600443783477
H        -7.09846582485400  -15.28559134388774   -6.61228386100357
H        -7.17830167386295  -16.83500532549627   -7.45294506434606
H        -5.64262982377864  -16.27061653954927   -6.81298135921259
C        -6.22918076876091  -18.32746154561584   -5.24480433430668
H        -6.56341435975428  -18.94167796807762   -4.41448202208292
H        -5.16998914730236  -18.11344998867094   -5.11223575758785
H        -6.35019173564233  -18.89411791741539   -6.16497763356839
C        -9.98165537612307  -15.09736495438033   -4.86611900075872
C        -9.24536414446692  -13.99921189030523   -4.49205674726430
C        -8.66178264943207  -13.08881823291564   -5.37578523213181
C        -8.82003317634351  -13.23146178284771   -6.73406998617419
H        -8.39271193344092  -12.52842633062699   -7.42954008147317
C        -9.55611203524563  -14.32904567029355   -7.16255940933854
H        -9.68109483873553  -14.45221082813096   -8.22653493779280
C       -10.11331965471858  -15.25299159064617   -6.27138439049260
C        -8.18412919037651  -12.43849372025494   -3.31179598400262
H        -7.20134996778644  -12.62120558502136   -2.84814267441014
H        -8.67978680280151  -11.59515824146573   -2.80520577273857
C       -10.84773492257611  -16.41511811865747   -6.78361240198799
C       -11.09905859299210  -16.51223205817290   -8.26719700814378
H       -11.60716078515764  -17.44546357681476   -8.50346961884354
H       -10.15968170714340  -16.47959196986868   -8.81715702673743
H       -11.71460636242243  -15.67717452858903   -8.59853550233659
C       -11.94415678489868  -18.46700627056390   -6.32966491228620
C       -13.31645205101508  -18.41540814284688   -6.63212522936095
C       -13.99002157980680  -19.60524004670616   -6.87538463099610
H       -15.04426525838203  -19.57566521536165   -7.10864983199031
C       -13.34371564847432  -20.82417625519111   -6.83778415351702
H       -13.88905562185673  -21.73685077107117   -7.02936830574213
C       -11.98955193044716  -20.86652931150195   -6.56570883995972
H       -11.48482329265544  -21.81907668147202   -6.55698659749947
C       -11.27666350706736  -19.70629664916458   -6.31311509836975
C       -14.09867216364649  -17.12213211880801   -6.69466693425569
H       -13.43050163676499  -16.29005517934966   -6.45200311164297
C       -15.23073035478608  -17.12953438666919   -5.66151152835297
H       -14.83160143776448  -17.34660918095133   -4.67304041852608
H       -15.97708061894328  -17.88297492476233   -5.90450036608345
H       -15.72469577180074  -16.15915001881422   -5.64121735346646
C       -14.67741999827711  -16.88941016160700   -8.09394015944260
H       -13.90190805336187  -16.91743540561528   -8.85543961324790
H       -15.16566156405454  -15.91766653994143   -8.13669570889740
H       -15.41574948712186  -17.64969221091925   -8.33816397950554
C        -9.77781052236433  -19.74713060366219   -6.12326645473847
H        -9.50105055328251  -18.93454861630702   -5.43940574007285
C        -9.26874737450794  -21.06071841123581   -5.53193687296872
H        -9.86167204186971  -21.35476590650394   -4.67042778511807
H        -8.23589387961289  -20.93854966090369   -5.21212400487085
H        -9.29487159236182  -21.85894775413834   -6.27077681692198
C        -9.10344968991643  -19.50940332672038   -7.48015634868780
H        -9.29824717476716  -18.50499610009987   -7.84355346876158
H        -9.47961944814790  -20.22133473321002   -8.21344339061857
H        -8.02749022540962  -19.64160441695120   -7.39649372465529

