45
CSD_code = IKUGUS | q = 0 | S = 0 | Stoichiometry = C17H21N3NiO3 | MND = 4
Ni        6.87744807606848    8.16891787650001    4.07237372226730
O         6.92184196398664    9.61282228536692    0.39796591993197
O         7.47965960124295    7.62569621120648    5.80814702525988
O         7.47584305214021    5.89205714933966    4.47510465761089
N         6.32810878889889    8.62222484111996    2.38858117121578
N         5.05526763755693    7.50242509946066    4.30260772789918
N         8.55319535410218    9.24587347000122    3.60108142288331
C         5.15738087382475    8.01319696822940    1.99831456880979
C         4.59808394372123    7.94914223023534    0.73403221789776
H         5.10515583485645    8.40686559730613   -0.09881956000572
C         3.37991594388696    7.28938189049292    0.54640445488878
H         2.96740633308901    7.24994028658341   -0.45126591466146
C         2.70116607035590    6.69649802445975    1.58136666557057
H         1.76307786901138    6.18951473323422    1.41313640893071
C         3.22964232470470    6.74164199290277    2.88559758393099
C         2.61999886554987    6.17230973981411    4.02098229087168
H         1.67861079315280    5.65229647570295    3.91548243543059
C         3.23193343359758    6.29032206703580    5.24115712485822
H         2.78969656583543    5.86917817016659    6.13056118385429
C         4.45398544927511    6.96926587137132    5.34348246709301
H         4.94110188263902    7.07238447153280    6.30431391703381
C         4.46678365940939    7.40187758294348    3.08278507791792
C         7.09989159617524    9.37262944857880    1.57957004244059
C         8.25449338613395   10.00338764224948    2.36838491143568
H         9.13969270391748   10.09621794380676    1.73000069295403
H         7.92473031333746   11.01332898274336    2.62249326381175
C         8.86359133928106   10.16809647492064    4.70959214361036
H         9.27349898145612    9.57379055822371    5.52933550228853
H         9.62214532756708   10.89566520916739    4.38863345057098
C         7.61071472763285   10.87628376927761    5.21608772932436
H         7.26637838729487   11.65065474362226    4.53457199373213
H         7.80838727177172   11.33343352559939    6.18196516985134
H         6.81005888418896   10.13016301192629    5.34133169454211
C         9.69771073856761    8.34941164977048    3.35755300431896
H         9.94186660683895    7.85059782562583    4.29941739243339
H        10.56770843602416    8.95026518000062    3.05003088166482
C         9.39183561877982    7.28931934342143    2.30820835093425
H         8.51793675469434    6.71016462861639    2.61764724001033
H        10.23699378830386    6.61064338223542    2.22163777446039
H         9.19842094970373    7.72722244387290    1.33236214173177
C         8.19836451430349    5.54936458720172    6.74411762958688
H         7.90031830955618    4.51477670621840    6.60540108867167
H         7.82291844268354    5.93554247501832    7.68725112158467
H         9.28536509555708    5.60057427534547    6.75576832485007
C         7.68227350932214    6.38723315754919    5.59204588568431

