39
CSD_code = IKUGOM | q = 0 | S = 0 | Stoichiometry = C15H18ClN3NiO | MND = 4
Ni        2.54114058113052   10.45469670494334    4.08496713351202
Cl        1.23347949233659   11.19199464117754    2.66488051139565
O         5.72555835158048    8.66395469261082    5.64241185539408
N         3.77919516746310    9.84877981307230    5.32794394013948
N         1.79290904296984   11.45143606601324    5.54464935309945
N         3.55703988098859    9.27657606107536    2.78201175606352
C         3.64497752989651   10.39910877773247    6.58086529924125
C         4.42988877036678   10.19184824879125    7.70231923080494
H         5.28178215939610    9.53524456955878    7.64293828276941
C         4.11251281313119   10.83583119258015    8.90092631031621
H         4.74116047468385   10.65734840463875    9.76101970057179
C         3.03446130038103   11.67729108077413    9.01381968723862
H         2.80319989807803   12.16346328351601    9.94936242239039
C         2.20936168342047   11.91823940873342    7.89884886206026
C         1.07957003411236   12.75932417621704    7.90818711225157
H         0.80245150411350   13.26768778593173    8.82039054510619
C         0.35292269293375   12.91530477431344    6.75775071730081
H        -0.51897424011238   13.54942312843532    6.72729980861199
C         0.74173750743693   12.24530965096204    5.59053422748895
H         0.17521064644694   12.37209220021485    4.67718374632250
C         2.52765018690309   11.27436537608124    6.67804211251907
C         4.78000240727867    9.02593021092178    4.96376468053540
C         4.58931433672745    8.52188133908886    3.52761862657627
H         5.55265659374654    8.55282407093500    3.00879133900021
H         4.30238216313639    7.47061056212239    3.60959531224247
C         2.62668372838298    8.34362375386183    2.11763193832873
H         3.19090389771864    7.57838093154122    1.56855480353671
H         2.02836998916968    8.91593029012723    1.40534829593817
C         1.68216350396939    7.70428321035479    3.13046590928177
H         2.18639710732830    6.98682550085432    3.77371769979989
H         0.87054973819815    7.19791459030904    2.61538920895482
H         1.24855702480051    8.49753758575170    3.76204808425464
C         4.20051828758695   10.16611930513030    1.79716676071600
H         3.42175225699535   10.56976289030754    1.14550478735452
H         4.90931942528600    9.59354911746408    1.18316895179696
C         4.90528121557516   11.32791494812309    2.48780024098843
H         4.18288452306731   11.85706764376333    3.13087061184338
H         5.27819140764071   12.03055982928963    1.74710934434078
H         5.73763691573683   10.98996418268115    3.10110078991398

