63
CSD_code = IKUKEG | q = 1 | S = 0 | Stoichiometry = C20H34BN6OPt(1+) | MND = 6
Pt        8.69443068907132   10.20744103067724    9.37732037298897
O         8.24373792169575    8.09191633011995   11.05308748794483
N         7.99957466118525   11.77947693509910    8.21690563058994
N         6.65602757739537   11.90783614219753    8.13126489119364
N         7.19338320521280   10.82985402866191   10.85739005608714
N         5.96214978369412   11.05760141188969   10.36647361937113
N         7.11355212248925    8.95975184904329    8.46934255209423
N         5.90402030725861    9.54285496721854    8.38569620063992
C        10.01971141641913    9.62422466636618    7.87535174424009
H        11.01206586268789   10.05879954617809    7.97343140444700
H         9.59502651429922    9.93723064389372    6.92170556867884
H        10.14030764952580    8.54450368412875    7.84437217786117
C        10.09822118178997   11.48153547937432   10.24616741504950
H        10.46933095406033   11.10959834622946   11.19843987632981
H         9.59581603451065   12.43140084181307   10.42781777520092
H        10.95717281170641   11.66676780470303    9.60755545041659
C         9.24227292716706    8.69482299894760   10.52273132162886
C        10.62034304622286    8.21662857578661   10.82175722550950
H        11.37169413531055    8.80615556385563   10.30604961567653
H        10.72870006843277    7.16811916979471   10.53205218824697
H        10.80960508843937    8.25828206686548   11.89777486080973
C         8.36726792764037    6.97077542906113   11.92943692640904
H         8.85102577079792    6.13308898814762   11.42330320703594
H         7.35347972021752    6.69402671534224   12.21094086624053
H         8.93884983751800    7.23535393560302   12.82115180359645
C         8.55338851723215   12.76363876202967    7.49632595564214
C         7.53549949267441   13.53122655065013    6.93608205776250
H         7.65316789650524   14.38825313847562    6.30629875673526
C         6.34775021132957   12.96306921307011    7.35838561141936
C        10.00513504443441   13.03804567516405    7.33034536006752
H        10.38203873355287   13.60520827462058    8.18012414780131
H        10.14573003999684   13.64254011146836    6.43782383819240
H        10.58597437534456   12.12847830719246    7.23258607814236
C         4.96844200544184   13.40430411259465    7.03734017636660
H         4.41500623788490   12.61395770121983    6.53442988309843
H         5.01353764868019   14.27054878602214    6.38356672389089
H         4.42693552448118   13.67606794799776    7.94119198240057
C         7.14301087752738   10.97076185023161   12.18237234009283
C         5.83821738413914   11.29745875540893   12.54970816280138
H         5.47533965796318   11.47753923977576   13.54021190622325
C         5.11551735269897   11.34600570566540   11.37087581077878
C         8.30517968729352   10.83099867368492   13.09931788404572
H         9.04917746739021   10.14556228427451   12.70109031610927
H         7.96432267871296   10.47071160181634   14.06711937710986
H         8.78147141990860   11.79943862048683   13.25057641368008
C         3.67472070864639   11.65113556220746   11.19330179221314
H         3.53963929290501   12.53221895660496   10.56907709027004
H         3.22410076361739   11.83822266523845   12.16378961305426
H         3.15680890354649   10.81908872106295   10.72030989109361
C         7.00022170667813    7.71165010712941    8.01204970204066
C         5.67927340767302    7.49283932047569    7.62299170853989
H         5.27159668716607    6.59266521936070    7.21227200472814
C         5.01124196832189    8.67790073938912    7.87247534771527
C         8.10771791667795    6.72365380602028    7.91415506485421
H         7.70732399199174    5.71957344017704    8.03484461412683
H         8.87113822301609    6.89724366045676    8.66850143255610
H         8.57608414271130    6.78048988137955    6.93166945348976
C         3.57965032359931    8.98754035712990    7.63708068613825
H         3.08123761749450    9.25449391358436    8.56734456669633
H         3.08819117246609    8.11574838645826    7.21391619319087
H         3.47274040810006    9.82063670588575    6.94473731977520
B         5.66811470629905   10.98304477968989    8.86004640184450
H         4.56248859114565   11.31119131491076    8.64224409702854

