43
CSD_code = IKULOQ | q = 0 | S = 0 | Stoichiometry = C14H19ClF3IrN2O2S | MND = 8
Ir        3.56304713251414    5.94049430163889   13.10388250122671
Cl        3.24079658580975    4.26111503732112   11.51859974848737
S         0.50340436964341    7.27731189670223   12.52255579183843
F        -0.74624646790118    8.55373292809617   14.56573951586658
F         1.10782534108261    7.60638870855175   15.12154040825014
F         1.13596592466234    9.44850210449134   14.00552845036704
O        -0.16590979092714    8.13310228303113   11.59299706006586
O        -0.12468589583923    6.06235393491090   12.94969863630589
N         2.03386320114259    7.08978864701852   12.21499964686246
N         2.27457406070927    4.94556612385659   14.16293234164275
C         0.48516744018251    8.28407449078691   14.14106076053881
C         2.65797561657091    8.03753185076515   11.30995467753500
C         3.81838273404964    8.78899395658466   12.00216880087535
C         4.63696071625050    7.78946369209939   12.76866137047811
C         4.61997364333258    7.59997623675387   14.19234580545479
C         5.35214924172928    6.40219717060528   14.47808105286557
C         5.80390915099014    5.84341385901901   13.24250978823124
C         5.37102510434288    6.72089279773387   12.17890599455418
C         4.15197698451629    8.56408315228751   15.23055009079158
C         5.70247036055227    5.92001305359939   15.84692181420241
C         6.74306318333638    4.69798500229895   13.05575506397087
C         5.79631654575498    6.57896151915164   10.75374242405713
C         1.29214421968179    4.42726544282542   14.46748251260953
C         0.10161572630719    3.75999959552895   14.86606534910036
H         3.04841847818875    7.48248695898701   10.45038458209922
H         1.88860978580075    8.72675766524391   10.95355943211663
H         4.42193117565015    9.29156000655251   11.24343362799725
H         3.41524407422462    9.54325717446344   12.67775063188655
H         3.54704183384824    9.35412488668666   14.79625610287579
H         5.01361300952595    9.02151151625207   15.72062502576688
H         3.55913626797693    8.06082424550995   15.99168058269904
H         4.92334609592704    6.17675239953571   16.55964836897527
H         6.63035508253520    6.39394611860322   16.17117390692037
H         5.84684593115785    4.84291129106484   15.86054196990405
H         6.77080450324226    4.06205272501131   13.93605488333874
H         7.74959591237300    5.07638139915117   12.86890624193677
H         6.43856072652767    4.09816233793860   12.20106173907005
H         6.88242032650527    6.50027634786140   10.70042891789356
H         5.47673648639969    7.43240473146418   10.16207338443961
H         5.37090593377274    5.67404641682778   10.32015734672487
H        -0.09153259818199    3.92716748368775   15.92463763282193
H         0.18993034770304    2.69321852754639   14.66448213105105
H        -0.70692850166774    4.18524998194665   14.26986388529867

