76
CSD_code = IKUMIL | q = 0 | S = 0 | Stoichiometry = C28H35F3IrN3O4S2 | MND = 8
Ir       11.89066583953809    5.55484284770056    8.63698171698672
S        11.87683831070851    8.73613140153174    9.71016868798745
S        13.24163994592342    6.16193751273812   11.27656346192404
F        11.72408872319716   10.07428543037717    7.26070493815704
F        10.15272923821412    8.64425177046722    7.62588943069674
F        10.10961984590164   10.56651191828771    8.60313430015952
O        10.67884643926759    8.39602748168684   10.44213637512889
O        12.71794350565562    9.81236235774966   10.10997592192849
O        14.40416068709987    5.85637177196583   10.48071924359832
O        12.91083518016332    7.56213667721964   11.45377104822495
N        12.47894064257113    7.55903274211716    8.83883685649775
N         9.89633390089290    6.08320532533414    9.31476706922681
N        12.02250441602246    5.27356735519482   10.71328301958703
C        13.21520014960060    5.26819298220942    6.84205454351932
C        13.47138586635137    4.19730097092391    7.75404341049104
C        11.25282020813657    4.06762210447331    7.09882989078446
C        11.84480420373552    5.20812250032004    6.44090686723750
C        14.80886161830100    3.79160809123023    8.27670030384140
C        12.12414101347454    2.14664575692024    8.63075972349562
C         9.88513583775472    3.52638645750375    6.81958880464434
C        11.20263752233955    6.01127633679213    5.35120368538185
C        14.21801315726522    6.26342173444786    6.36231381119166
C        13.89286210562766    7.69987526292097    6.80125030972555
C        13.80061484450245    7.85525228801128    8.32064283163642
C        10.93501409287434    9.58085700660986    8.22992784938692
C         9.60318915898450    5.26935376684663   10.50017978013058
C        10.79681198494142    5.47313596574117   11.46287272353936
C        13.60390988048777    5.52371737492060   12.94367548796892
C         8.30249607770263    5.62288015567152   11.17446827572979
C         7.42421695904132    4.61726135700494   11.55817134414342
C         6.24632086485180    4.92546568145364   12.21589511995524
C         5.93336146040570    6.24491423732763   12.49269608838812
C         6.80647376683778    7.25210541297452   12.11575252381275
C         7.98806709138212    6.94700214918383   11.46303327318638
C        10.66463885441408    4.49236939390799   12.60179231212155
C        10.02543104308740    4.86024147639904   13.77824612195943
C         9.85611265527943    3.93958838846021   14.79785240164369
C        10.32595760000090    2.64524969757312   14.65241983405366
C        10.96527003800981    2.27328726821587   13.48138192898113
C        11.12808452662941    3.19152015866294   12.45977652177346
C        12.24953350855567    3.45213999844291    7.91299302069088
H        14.26031025937810    6.23225821723420    5.26852106445293
H        15.20167168159533    5.99769688201100    6.74998767247395
H        14.68628516534885    8.35249626127321    6.43479179154801
H        12.95450505810021    8.02438189065992    6.35527316185140
H        14.01687560477667    8.89103250235934    8.59001286707610
H        14.54160200542235    7.22318551363054    8.81817784889089
H        12.72424741301569    2.15429430484404    9.53654567149854
H        12.47608386623529    1.33596001054082    7.99011460899820
H        11.09068253918404    1.94282552651965    8.89813744961610
H        13.71205699705678    4.44936203300495   12.88436268619106
H        12.79980840972101    5.80145355958580   13.61046627800421
H        14.53107834755125    5.99014866505933   13.24993054155759
H         9.47123518465401    3.02722985239391    7.69225701405856
H         9.94171372000504    2.79602610187118    6.01073716610734
H         9.20652148754981    4.31874905588631    6.51494574299403
H        10.50969849055925    5.39303573890047    4.78328534968329
H        11.96004792966546    6.39406593885146    4.67136231137689
H        10.65223881594239    6.85978221338636    5.75337365241713
H         5.57381078434530    4.13437919457198   12.51275667096119
H         8.67447203304966    7.73654608383776   11.19659104909670
H         9.35607347692484    4.23353535125425   15.70870686801656
H        10.75822118083942    6.50311896335396   11.84235391469124
H         7.67020278537511    3.58550112337997   11.35008337267259
H        10.19481576616633    1.92874105960420   15.44964718249204
H        15.56811975362390    3.89776731164216    7.50374577331298
H        14.79182480534552    2.75778224462544    8.60977984731465
H        15.07943052275276    4.42440481264537    9.12095358748669
H        11.62718023494612    2.92474846825507   11.54154185517101
H         6.57011306096029    8.28220809367442   12.33603039243552
H        11.33300775609752    1.26408191801534   13.36455631188138
H         9.58900928652909    4.21340316271301   10.20205861408013
H         5.01419631610250    6.48725281913064   13.00498432597037
H         9.65820026863748    5.86973553782515   13.89108489156536
H         9.98444170030987    7.05916118240070    9.63681210745534
H         9.13180452649854    6.03508983753787    8.64476949708686

