65
CSD_code = IKUNIN | q = 0 | S = 0 | Stoichiometry = C26H24FeN10O2S2 | MND = 6
Fe        7.97664385901398   -0.00275039269607   17.78719648379837
S         8.22961682330398   -2.97062666472857   21.23445582711753
O        10.23829278005891    0.33850279709088   17.96667258377595
H        10.77245697567810   -0.45254903736150   17.84165774350771
H        10.34460339488021    0.87569803688264   17.17075534318694
N         7.67129541046711    1.71706292915332   18.66878209895651
N         5.44929777913808    4.60371679886130   16.77821965406319
N         4.63504374172802    5.21035444953151   16.03559589462745
N         2.62543997854575    7.08901276175134   12.15496122135159
N         7.74844811388911   -0.91964906677131   19.45056829031531
C         6.89591348234574    3.98808247426027   18.52815107190554
C         6.91824372023450    2.65729222537790   18.10903005825924
H         6.33761778777766    2.37662444745918   17.24211146693418
C         8.39733252111071    2.05396495768743   19.73977388584386
H         8.96967467589843    1.25552885649620   20.18553659362084
C         8.41493697495942    3.33790829292121   20.25500376833641
H         9.01665963544996    3.55818969945668   21.12253971370270
C         7.67310028932908    4.33072663132899   19.63791640416623
H         7.69291644328512    5.34804967434168   19.99883339326177
C         6.14578130118023    4.97145438848630   17.77889080547691
H         6.24910322839602    6.01808696852406   18.06846304079688
C         4.71611506809577    5.64234652233919   14.84179009408551
H         5.66782941533007    5.67643213539583   14.31207919667554
C         3.54240147579409    6.11340364641598   14.14209757228898
C         3.64911357099943    6.63176611470430   12.84695606487453
H         4.61021206226751    6.67657857093110   12.35034864775189
C         1.42581325451667    7.05554894295397   12.71121442057514
H         0.61847222473589    7.44207308332183   12.10344315732569
C         1.19365900594368    6.56118412033589   13.98854910410370
H         0.19587206137274    6.55209783224090   14.39984079865630
C         2.26710195597243    6.08434482167363   14.71494835646478
H         2.14184237058818    5.68919257060506   15.71239573381469
C         7.96990610669548   -1.79446303440909   20.20551936376040
S         7.70405542423009    2.95204031299134   14.33007277555221
O         5.71568748898243   -0.34261828172240   17.60529348704042
H         5.18180262983748    0.45003736499412   17.72157609584761
H         5.60462094742608   -0.87413762803723   18.40426918148896
N         8.28247575518418   -1.72291627386388   16.90597652421356
N        10.50618376343303   -4.60744831499857   18.79775560717795
N        11.32061492613992   -5.21163245383478   19.54201446343557
N        13.33104322897641   -7.07435586369094   23.43014068387202
N         8.20536119770784    0.91456679118099   16.12398579738478
C         9.05950791370663   -3.99329199265573   17.04757270493558
C         9.03641909026818   -2.66227358979155   17.46601712827690
H         9.61721209730762   -2.38039531395700   18.33243609519162
C         7.55655796938291   -2.06078482950863   15.83527428044035
H         6.98328054534482   -1.26305669101130   15.38947253594834
C         7.54023255381313   -3.34480895593439   15.32022624815007
H         6.93889045881905   -3.56579941903606   14.45260440309302
C         8.28276592836658   -4.33680545590232   15.93777118043690
H         8.26379259554883   -5.35424488551424   15.57714766606614
C         9.80954025779005   -4.97621614145190   17.79766246603079
H         9.70535580754295   -6.02310115262301   17.50935653747890
C        11.23998097771250   -5.63952886857658   20.73736385601541
H        10.28829797660692   -5.67248678337667   21.26718721110485
C        12.41404053787092   -6.10681290939184   21.43902416633293
C        12.30710934908885   -6.62148166101236   22.73565075585827
H        11.34557298245070   -6.66681886137619   23.23140936339454
C        14.53118743135416   -7.03999111961974   22.87502677972738
H        15.33878494984334   -7.42268215441929   23.48492266411810
C        14.76354001826314   -6.54942790086049   21.59626774204975
H        15.76168928111805   -6.53961324439082   21.18578858406159
C        13.68982958690383   -6.07711736562110   20.86726424712711
H        13.81540124849258   -5.68493308959406   19.86866543124439
C         7.97390759147505    1.78295017804450   15.36410548360024

