83
CSD_code = IKUREM | q = 0 | S = 0 | Stoichiometry = C30H49NiO2P | MND = 5
Ni        3.48366243486509    5.30815303362247    2.74911278915904
P         4.48375727362839    5.54833573700571    4.68017752172699
O         1.93341163137914    6.42585884825073    2.80327575798880
O         4.78857631541619    4.24159299394459    1.76178096267110
C         1.75561988022005    3.56255908942706    2.11307786153837
C         2.36494026655241    2.32200446546546    1.96196950706156
C         1.67458535734541    1.06504768843044    2.43695052420026
H         2.21452017634937    0.66920592381581    3.30413893446746
H         1.74357944926122    0.31019889904540    1.64838433287936
C         0.21919470772463    1.29619815226977    2.82051524389342
H        -0.18156560079058    0.40339741623584    3.30569776275590
H        -0.37587826502792    1.49009916222351    1.92520389398033
C         0.14126264416180    2.50028794721986    3.74902898444292
H         0.82684433324568    2.35383736929043    4.58623785627531
H        -0.86648329150140    2.61270491121877    4.15458034273382
C         0.52109993792323    3.75405021541617    2.97215012948113
H        -0.30918020796241    4.03485899768071    2.31345271191452
H         0.68031032629524    4.58960160170285    3.65839871785454
C         2.18531079949545    4.65161940430010    1.29965804537370
H         2.59175103869014    4.40310074275500    0.32199967388094
C         2.05874963974737    6.04107910820214    1.60025177340839
C         2.17263849866298    7.05349685281477    0.48041386335606
H         2.33805865897470    8.04593730717904    0.89483364785462
H         1.24161331033701    7.05915196942175   -0.08669711690656
H         2.98564164317063    6.80089457794016   -0.19696835276630
C         3.66588044319714    2.13474923746012    1.44906510823180
H         3.92724233036903    1.10603077452702    1.22926067231847
C         4.75584194219885    3.00479571268115    1.47028932522808
C         6.10671458685200    2.36739232282079    1.16859280540880
H         6.88587459012066    3.12221183092700    1.23896211239929
H         6.09980951868061    1.95676747234952    0.16109296930887
H         6.32665788486459    1.55987154476248    1.86418697174355
C         3.57655890003109    6.55777563406240    5.96839494564164
H         2.59462902815107    6.06459524050129    6.00501406593377
C         3.34021144634746    7.97420592979978    5.44440204185551
H         4.28311419122464    8.52374260041485    5.42180768859451
H         2.94194560732161    7.91540206394877    4.42914983531866
C         2.36276805152919    8.71939351007110    6.34790456366598
H         1.39803662494930    8.20827976501301    6.33882490431422
H         2.20751529495681    9.73255737252009    5.97105599679967
C         2.90041214002190    8.77050030885159    7.77471043583984
H         3.83637496111542    9.33459826759606    7.79053411556150
H         2.19068599267179    9.28517675616923    8.42585101280869
C         3.15183245892637    7.35918724189714    8.29543700710729
H         3.55247031863441    7.40238614715343    9.31103417341073
H         2.20442321126789    6.81629139781379    8.33325423663656
C         4.12927593083825    6.60579247869831    7.39168012257471
H         4.26644205440071    5.60029365343262    7.79148593934686
H         5.09395193931794    7.11208237756092    7.40999939989367
C         6.12186482340047    6.33545389716505    4.26989650348458
H         6.68245789344181    5.50392951492394    3.82428597733301
C         6.96515083460411    6.94422040045743    5.38352119621327
H         6.46366700400731    7.81933357081551    5.79910227581619
H         7.11791525959408    6.22036645715036    6.18713415359342
C         8.31420145203204    7.37910640787642    4.80989594163358
H         8.92407245565005    7.82904811694954    5.59674274685912
H         8.84740329638099    6.50270519572634    4.43417741591248
C         8.11835408729280    8.37761771307532    3.67142494747609
H         9.08904865755654    8.66648978280575    3.26304593534420
H         7.63997032949290    9.27934774572556    4.06145326555847
C         7.24607664180258    7.78127824765394    2.56825299804364
H         7.75047831074359    6.91617884440931    2.13271411709876
H         7.09790135314543    8.51698335098145    1.77512904816399
C         5.90119902651885    7.34855087435994    3.14180962794396
H         5.28100379826167    6.87647366749519    2.35901270550501
H         5.36920124580439    8.22566805068391    3.51209710533772
C         4.89027888560599    3.97709102327842    5.60251367649344
H         5.20790410608150    4.19496631897926    6.62662097187687
C         5.99289736224310    3.19037398848379    4.89671403798900
H         5.74480005023817    3.11831718124091    3.83756788087894
H         6.94564058158657    3.71424908282153    4.99366515914915
C         6.14465990587632    1.78711569392659    5.47882332790801
H         6.92481568212751    1.25090663042524    4.93405071254228
H         6.45629172086979    1.85654020596070    6.52449700201539
C         4.82821021662803    1.02512939755295    5.39590902907860
H         4.95033345681396    0.01553620361966    5.79424111734880
H         4.52393851431526    0.94529319026875    4.34983703571081
C         3.75784346110005    1.77589485072372    6.17808797028649
H         2.80801316588091    1.23817065836055    6.13125674718850
H         4.05302778204399    1.83799659693223    7.22896141226753
C         3.58258441441196    3.17902303322868    5.60976739361646
H         2.82491162693056    3.71714038237027    6.18478242855567
H         3.23169219147790    3.11155166778894    4.57159231664882

