50
CSD_code = IKUSAJ | q = 0 | S = 0 | Stoichiometry = C25H18ClF4PPt | MND = 6
Pt        3.89298540507943    6.34984900107458    1.15057146950532
Cl        4.58268057564902    7.37485253632527    3.13291285230347
P         2.72747457943961    4.90358418886431    2.46174637772391
F         5.17737268870693    3.92402377626905    1.99942798753468
F         7.79563056308595    3.48380059696842    2.40047108959058
F         8.87168637621306    3.63626152451102    4.89211170543557
F         7.26983952117991    4.22904097903120    7.02296465908561
C         3.43983399230793    4.71822288477757    4.13787575984058
C         2.68367874921297    5.03231091735771    5.24371353950415
H         1.64523562420314    5.30042315164011    5.12041597068326
C         3.23421733196434    5.04374087835613    6.53067998417865
H         2.60547729690659    5.29582537140234    7.37074104379236
C         4.55929881328527    4.77040971863246    6.71879853904724
H         5.00482104833734    4.80803856717276    7.70057796690226
C         5.37640856223263    4.44854856385059    5.61597415616387
C         6.75437234703915    4.18575478583560    5.78581288950973
C         7.56841528009233    3.88229851497759    4.72441387862654
C         7.01179102403505    3.80823217224697    3.43418228381391
C         5.67360668395820    4.05045974677069    3.24666931704803
C         4.81506729234859    4.39800918100820    4.31068751124141
C         1.06905957220610    5.58903760874986    2.75085499032360
C        -0.00663996131492    4.83679089081848    3.21411503561505
H         0.12834627523166    3.78851570573915    3.44404398826270
C        -1.24391341141973    5.43413235177110    3.37370629711913
H        -2.07910744619108    4.85136563056695    3.73375668855657
C        -1.41490701370652    6.77636692011777    3.07157539456520
H        -2.38386667935025    7.23601482178115    3.19800509719486
C        -0.34827097839601    7.52675693162952    2.60308186548356
H        -0.48461787047649    8.57073049910733    2.36392386854709
C         0.88969540657683    6.93298169246232    2.43854145771278
H         1.74295573121701    7.50317007058031    2.07128023508476
C         2.32563739289780    3.19293637967664    1.98556160824051
C         1.59138147648964    3.02639634174744    0.81502682186216
H         1.29467318623755    3.90332952876730    0.25475265598868
C         1.24642167047566    1.76104369259336    0.38269103674091
H         0.67378163930022    1.63634052668503   -0.52451881329602
C         1.64023561425054    0.65022182751029    1.11341250529043
H         1.37638705379238   -0.34044907549729    0.77455476507155
C         2.37281344979169    0.81111187376298    2.27692126683923
H         2.67908811811958   -0.05383673302161    2.84684709071222
C         2.71573118945497    2.07850164169041    2.71664976378365
H         3.28240921023693    2.19756753841108    3.62991756073246
C         4.77118580670396    7.73874018859723   -0.21650168839963
H         3.96431255212597    8.45827512620580   -0.35770405961515
H         5.75069444726781    8.18533551473375   -0.09450778783273
C         4.67360324474463    6.46818471323836   -0.80936489718733
H         5.57194523053833    5.88791963480036   -1.01209497352218
C         3.40349578285219    5.84045291773530   -0.85650255586089
H         3.35373890768105    4.82863828346192   -1.24079745205863
H         2.53083664738304    6.44893989850746   -1.09307674748444

