72
CSD_code = IKUTUE | q = 0 | S = 0 | Stoichiometry = C35H30ClN2O2PPd | MND = 4
Cl        5.11774956537947   17.28069234565111    4.44078980298726
P         5.83831054179141   15.72339665069016    1.42865211633018
Pd        5.78413281186225   17.76055844984260    2.29847816031535
O         6.45450950116557   15.90872380046521   -0.08197212297128
O         6.28774020727584   25.76147126578919   -2.40151217642763
N         5.84673866874661   19.81906694332596    2.40403175902892
N         6.34327237797261   21.76236354232688    1.44727000200078
C         6.59750289652210   14.16870662621637    1.94728464216369
C         6.36350848349509   13.78111634806925    3.26354674548646
H         5.77591621463672   14.42469265957395    3.90594703711256
C         6.89649905132271   12.59559155686155    3.73293108902770
H         6.71962083771856   12.29039087528184    4.75340260785409
C         7.66511644635341   11.80299056427108    2.89356049731399
H         8.08390327030489   10.87771071979034    3.26135568972795
C         7.90600424110279   12.19643032755419    1.58698082930598
H         8.51091480111029   11.57819186255042    0.93951499013729
C         7.37572574770268   13.38189572204589    1.10844801125448
H         7.56128037922063   13.70305204777295    0.09417032071117
C         4.10352838096711   15.25407181687067    1.08988882269562
C         3.12759708434558   16.21429983075855    1.34137151791431
H         3.42506679797935   17.18789621193548    1.75980896367336
C         1.79831886873552   15.92995566685965    1.08526327381010
H         1.03715491296906   16.66915023674380    1.28659718615809
C         1.44389793486351   14.69049587434326    0.57571351574111
H         0.40563303397990   14.46668865159286    0.37947960913042
C         2.41519962311229   13.73531099788506    0.32136837372813
H         2.13295557110622   12.77038781068075   -0.07376147318024
C         3.74598094544991   14.01298712748438    0.57889259930158
H         4.51025491012291   13.27217572869339    0.38949167109216
C         6.31263454617815   18.21896416029133    0.47000725913341
C         6.58955360429137   17.23566221097759   -0.47237591443718
C         7.01354674517867   17.57907139961690   -1.74392384045268
H         7.22509210254901   16.81384763099908   -2.47491844687864
C         7.17781199764961   18.92584233116067   -2.05278784067592
H         7.52858639589542   19.19640050011116   -3.03732835723212
C         6.91226707471203   19.92308751192664   -1.13152012182519
H         7.07445547545877   20.95576037613897   -1.39940750715881
C         6.45466215480533   19.57168197819459    0.13919213381758
C         6.17712011418767   20.42275838904428    1.29609381335127
C         6.10155709262136   22.11240650732277    2.84648731947603
H         5.21734887985358   22.75397931915539    2.92365785699722
H         6.95521198511445   22.64753542737123    3.26838007902632
C         5.89690404294614   20.73902264102260    3.51815246833185
H         4.96635995107523   20.68257138248406    4.09455900524379
C         6.31375919714884   22.74824554506217    0.45073004072144
C         5.43509273079355   22.65391124566176   -0.62216761327679
H         4.77210322677751   21.80434499087992   -0.69411013594629
C         5.40169072096000   23.63300606372062   -1.59898428639198
H         4.71143907802001   23.52312750269891   -2.42008219137334
C         6.23769943601510   24.74109462669866   -1.50484140544344
C         7.10195256577324   24.84715714314481   -0.41255190147808
H         7.73974609193663   25.71398863003859   -0.34775079160905
C         7.14020553123851   23.86578330638988    0.55201587706974
H         7.81991940771898   23.95826960801007    1.38458755543980
C         5.44187688648350   25.71462049285048   -3.52529744247273
H         5.66088039180934   26.61572435912810   -4.09563572028553
H         4.38643473243383   25.71883697197478   -3.23474003311585
H         5.64562542246776   24.83596446418820   -4.14569372050225
C         7.06957304163779   20.31727763602430    4.42927676108805
H         8.01219044538465   20.61783852608350    3.96480038652454
H         7.04552838593921   19.21897457228444    4.49184791189430
C         6.92510215082351   20.89842425459797    5.80311450027670
C         7.62383947951124   22.03368905073406    6.18901295831475
H         8.32275771122351   22.49563996693060    5.50447698331058
C         7.44599564576188   22.57211906154546    7.45209336925357
H         7.99849517918944   23.45401616058250    7.74359012686842
C         6.56459247860778   21.98086000462403    8.33986786666291
H         6.42732419580616   22.40068600776354    9.32578648329460
C         5.86551430829299   20.84564890422732    7.96255764607778
H         5.18269678435765   20.37658554950892    8.65567274949200
C         6.04360253448817   20.30728420393967    6.70177929528565
H         5.51021596958579   19.41492712296522    6.40668276219105

