50
CSD_code = IKUWIW | q = 0 | S = 0 | Stoichiometry = C12H28N4OS4Zn | MND = 5
Zn        7.90489365023931    2.34312908068880    3.61490316990245
S         9.70259802973313    2.07086147520938    1.87126520192104
S        10.05825491430312    3.03968956083880    4.63712281373280
C        10.69564257111895    2.72762513015717    3.08531036034320
N        11.97252539320544    2.98913601424677    2.81326988745098
C        12.51203181956009    2.65214957850211    1.51581310886572
H        13.55543741033069    2.95058038856817    1.47288361734209
H        11.94905662781896    3.16671109530941    0.73440936935640
H        12.42968340156442    1.57886552489377    1.32982967073172
C        12.87419468449809    3.49400899993902    3.82316227382223
H        12.29679948282139    4.11250854198468    4.51225983080581
H        13.63745491133155    4.10874327081577    3.34217528831265
C        13.55746616309755    2.34608234662596    4.58040552774286
H        12.81517318251293    1.85749359490299    5.23493111519378
H        13.90083160249312    1.61083346082454    3.84683919312686
N        14.71969724323097    2.81142159787723    5.31405271949289
C        15.54824437138073    1.70047260623045    5.73829629074332
H        16.43384542517037    2.09117067435639    6.23658911050230
H        15.86623272934177    1.13295792031247    4.86466358401305
H        15.02844136930806    1.01997033278465    6.43011737308191
C        14.35325268354763    3.64123475855549    6.44544624062505
H        15.25981657753951    3.95196880627090    6.96178228391708
H        13.70256357030578    3.11481532254405    7.15973663365768
H        13.83676649812725    4.53146840522561    6.09535877550855
O         7.78542043548524    0.05126644245500    3.56630527671954
H         8.37269046685966   -0.42481801271594    2.97076851494332
H         7.70275756370296   -0.45040490553496    4.38296035375851
S         6.14366189006590    2.16929218373243    5.38599905939835
S         5.81792926003049    3.17276889179297    2.62737225278651
C         5.15871650380355    2.81300919365403    4.16104189466853
N         3.87178416439026    3.04269059801375    4.41248502329076
C         3.31556690531034    2.66990647825204    5.69301747314466
H         2.25526622709944    2.90486229488040    5.70554803834872
H         3.82316249084554    3.21441939759148    6.49195995733726
H         3.45754421093237    1.60286107214259    5.87849001487187
C         2.97551757112821    3.53091695832260    3.38940559306737
H         3.54583212495620    4.17842686996794    2.72152411088638
H         2.18140032236835    4.11261089638342    3.86140651211474
C         2.35084031283544    2.36885979033148    2.60371181553966
H         3.12662471226319    1.91073058973990    1.96649115784721
H         2.01207050221527    1.61590475036859    3.32126411035178
N         1.19439688268350    2.80177598037194    1.84127659680652
C         0.41974942216091    1.66604650737350    1.38181330962940
H        -0.46374937936827    2.02947664132290    0.85966033498992
H         0.09597412707346    1.07908455195767    2.24036535547877
H         0.98497355240299    1.01131040920100    0.70096358117983
C         1.56474990924550    3.65566309803026    0.72913197489582
H         0.66425855250603    3.93439134977324    0.18459675157882
H         2.25989744893618    3.16225846552007    0.03352894955051
H         2.03265950748898    4.56279101946463    1.10348854664686

