80
CSD_code = IKUYAO | q = 0 | S = 0 | Stoichiometry = C30H45ClIrP3 | MND = 4
Ir        7.07871604213102   10.08046269854390    1.65517812562356
Cl        8.74884889080776    8.51370668528616    2.09681909869391
P         5.85909996380157    8.82297685842320    3.14573627393736
P         5.55280813296188   11.71632649723091    1.30524505203779
P         8.68264734949451   11.04835803642856    0.31163260668157
C         4.06071413835276    8.59479238502526    2.88655628765333
C         3.06030892706351    8.84354707570612    3.81674787202062
H         3.30650380941492    9.20464345468391    4.80376695097347
C         1.73249048781286    8.63083547100085    3.48542175150245
H         0.96029384469596    8.82844508860203    4.21531869492219
C         1.38958699258542    8.16427729852954    2.22801411158784
H         0.35221152372850    7.99957408287670    1.97595134582820
C         2.38186758528207    7.90877721509090    1.29428311220090
H         2.11986951927707    7.54278453172806    0.31180793752250
C         3.70525919453150    8.12778145146232    1.62388873045346
H         4.49029297534796    7.94288491187452    0.90205489283454
C         6.30918274978309    7.03178437562158    3.33019685067539
H         6.39394854330294    6.63557864014927    2.31441738842354
H         7.31251620600474    7.00654836308607    3.75947825926953
C         5.35352236428243    6.17137726836564    4.14563403491098
H         5.25637200037404    6.53375386984142    5.16659869465212
H         5.73296121998296    5.15175760435413    4.18910358400911
H         4.36264741695541    6.14690319121519    3.69622866178405
C         5.96128183755672    9.40732506578683    4.90202504580228
H         5.37139497635645   10.32432590464425    4.98747864774962
H         5.53964332288144    8.66083080844594    5.57909762253113
C         7.41091729994025    9.70345692584205    5.26408282408697
H         8.01839406919659    8.80379990433940    5.20274242433960
H         7.48737648883650   10.10720350276675    6.27273285877176
H         7.82588088897185   10.42751226231119    4.56353335921631
C         6.23771164504187   13.37908276902025    1.64854269184715
C         6.84667424627408   13.51503847384913    2.89507413583636
H         6.85398888454261   12.66107896484817    3.56069407055802
C         7.43984091067435   14.70398992867282    3.27056953168911
H         7.90625852772850   14.79700912581991    4.24071479761312
C         7.44461498904032   15.77678379350169    2.39137393784878
H         7.91472330661712   16.70732288429470    2.67412064354588
C         6.84802313563294   15.64988399569980    1.14898775888210
H         6.85227218103015   16.48427861468637    0.46194759095616
C         6.24343056919108   14.45985405934553    0.77677603038355
H         5.78099731517398   14.38277870498631   -0.19518315069669
C         4.78506215246321   11.93543838690465   -0.36906487856797
H         3.98139647151491   12.67387665042791   -0.33120978658355
H         5.56062849523854   12.29869806298100   -1.04510834907212
C         4.26563154773159   10.59771344591604   -0.87655325863440
H         5.06509731307488    9.85966460652019   -0.83108184599739
H         3.92511841335241   10.68089093502768   -1.90709707219460
H         3.43894260571391   10.24152024426679   -0.26550455547131
C         4.02777280137632   11.82976505999547    2.37311897448007
H         3.35025617626304   11.04349421592638    2.03069431149679
H         4.34148482166265   11.56412834099215    3.38581332183297
C         3.30739558513294   13.17147201637194    2.40116751764466
H         3.95485220117035   13.95293755659914    2.79277533600934
H         2.42833609759320   13.10147905196695    3.04020790670844
H         2.97655917176221   13.46952925179161    1.40941857521772
C         8.16621273896504   11.88228751265310   -1.23282298147492
C         7.58206805351347   11.06543021334081   -2.20007695716324
H         7.48605203063587   10.00651877382212   -1.99969767422988
C         7.12425154627419   11.59062883132731   -3.39228064856083
H         6.67948056294718   10.94412785402671   -4.13504380623140
C         7.23186242656605   12.95224814094028   -3.63128761551194
H         6.87186263790689   13.37022932942243   -4.56003989156205
C         7.80057638725670   13.77375306295432   -2.67361055676712
H         7.88409270576018   14.83594932640296   -2.85552697561199
C         8.26705403912033   13.24496768842623   -1.48103312510340
H         8.70642921250685   13.90335925799096   -0.74779018635538
C         9.99736747305687    9.94862089115046   -0.39608145834449
H        10.54820175209364    9.54021769593592    0.45309719059842
H         9.47655869011362    9.10640359985273   -0.86044128618652
C        10.94948533211947   10.59073838979942   -1.39586928519878
H        10.40929691059068   11.01217144955299   -2.24195284813991
H        11.64044826282106    9.83852285854397   -1.77329413367509
H        11.53776566057764   11.38134171794789   -0.93596918485555
C         9.69598758912729   12.35614628856809    1.14093788469085
H        10.46740526645073   12.72426245100238    0.46000834457606
H         9.02308253659014   13.18253159567776    1.38261019577015
C        10.31397598669209   11.82026698811273    2.42564248037578
H         9.54189841260038   11.37256147381748    3.04880963212070
H        10.79408940127208   12.62086853274577    2.98628153370340
H        11.05506605660758   11.05300550560272    2.21506401654736

