64
CSD_code = ILABAY | q = 0 | S = 0 | Stoichiometry = C20H34B9Ir | MND = 8
Ir        5.69069319572336    8.52018073224654    7.84309461103193
C         4.59398244448510    9.34244541372920    9.50756082910043
C         5.12586143873089    7.88171793422360    9.88140062833140
B         5.75477392125340   10.41624029752324    9.00793085492777
B         5.15688961734054   10.53252789548481   10.66115979636238
B         4.74019395175185    8.94044562483728   11.20547168023011
B         6.74256470517115    7.71543015835131    9.65585447121473
B         7.27646619392873    9.39964341800727    9.03177358944569
B         6.89193946399668   10.54998510873055   10.32522050596419
B         6.26619063009511    9.64564419310592   11.72855048437672
B         6.14389712540655    7.93302247912498   11.30375024526709
B         7.52026178542408    8.87175131023409   10.70365342965931
C         3.15284390603752    9.41556617806791    9.02103330265687
H         3.02237974181402   10.30637795720677    8.40020494041190
H         2.46638697325343    9.52265459682026    9.87079055936515
C         2.71933223995312    8.20176662430875    8.24078440517166
C         1.80742925040759    8.33748693114928    7.19884969510559
H         1.46443563328537    9.32537409172139    6.92464607831025
C         1.32666731854945    7.23109579970126    6.52320370986898
H         0.61802723338419    7.35602308339426    5.71816589914930
C         1.75311382859097    5.96456176253953    6.88820370471627
H         1.37630378768315    5.09414054085904    6.37261870187855
C         2.66907835687419    5.82014453782043    7.91310550235545
H         3.00700732663601    4.83360124889585    8.19717540998925
C         3.16542943702533    6.92688087389908    8.59290303017793
C         4.13647964245873    6.73458836889155    9.72609378881108
H         4.68648005718358    5.80266735169844    9.56685774847119
H         3.55402831922941    6.59953979437558   10.64647631974331
C         6.33407261995333    7.05005226730666    6.30797201299378
C         6.74893714078353    8.36999952542755    6.02513777985347
H         7.80894167656539    8.59690186548581    6.09000693766178
C         5.83329521343487    9.45733628149791    5.92375488989712
H         6.32057180885270   10.42599377044562    5.85275344559699
C         4.53727163341786    9.42553384953117    5.13865360619943
H         3.78734779492032    8.78360815590855    5.59734186910027
H         4.11645925943590   10.43407420612225    5.14233586512862
C         4.71063149159257    8.99293578702308    3.66605272337737
H         3.70733408793937    8.79691168606410    3.26837044597474
C         5.56035931558316    7.73318502369909    3.47371322659046
H         5.59792407834839    7.52721553277936    2.40022382985301
H         6.58203350613362    7.94298949320441    3.79337270151967
C         5.07157601854150    6.45807907013930    4.16007988085373
H         5.71513220743523    5.64273129517495    3.81968161646413
H         4.05575975365227    6.23224244772034    3.82638837990614
C         5.07112074358885    6.46733886062593    5.70162392279784
H         4.96588618861939    5.43386826166285    6.04027283223079
H         4.18228530565897    6.99143904329287    6.04229695691194
C         7.41283726775858    6.01674964883257    6.52944636041649
H         7.68064359224752    5.54575861475128    5.58163366183224
H         7.06646576459427    5.23226610379040    7.19929907617508
H         8.30503136889432    6.46442614841646    6.95718582103343
C         5.33247928799418   10.13236540492134    2.85724612055451
H         4.72441761143726   11.03150774023555    2.92682140188645
H         5.41555662284749    9.85875615686184    1.80759962384298
H         6.32756336743769   10.35975721771378    3.23131110396537
H         5.47256481892269   11.29103521039364    8.27182115107557
H         4.44844716441812   11.43282153062287   10.93130815299145
H         3.73266141186672    8.70564918094018   11.77076038984068
H         7.19695680638892    6.67387772660741    9.35403060655880
H         8.20705117384467    9.57339827617410    8.33203907756015
H         7.56947798615454   11.50324203866789   10.46155745807473
H         6.45560447211697    9.98479874144337   12.83916638380794
H         6.14606896062571    6.99748983794883   12.01767513199715
H         8.61969495224667    8.70865969162940   11.09373163344535

