64
CSD_code = ILABIG | q = 0 | S = 0 | Stoichiometry = C20H34B9Ir | MND = 8
Ir       -0.12581153669191    2.01680688564404   -3.82718067164021
C        -0.49276055109479    0.90142626965968   -5.66893595459441
C         0.88768762111566    1.71300842536442   -5.71331935032776
B        -0.62665659101659   -0.09835591235106   -4.37379774605582
B        -0.22978608411280   -0.79928432622985   -5.94861077249704
B         0.70483700903535    0.37432902284240   -6.81640885066043
B         1.91747245053538    1.38702338367518   -4.46194208743502
B         0.96375193243159    0.17495047229472   -3.46082193796231
B         0.68481459542235   -1.23963111654423   -4.49884004052192
B         1.53209515806909   -0.97766266207651   -6.05471861411152
B         2.23189282992374    0.65588294896904   -6.04022559536809
B         2.26645574322235   -0.31937025361030   -4.56474827472463
C        -1.67692008118573    1.62795078500052   -6.29564826509484
C        -1.67616362998329    3.08254559702736   -5.90802485921651
C        -2.84511082081236    3.73742630157659   -5.54586575151642
C        -2.82667009881961    5.07947010845097   -5.20768173246997
C        -1.63274746579123    5.78057073477331   -5.23086900284874
C        -0.46231673776623    5.13829969705435   -5.59566630082195
C        -0.46946157869969    3.79222548449074   -5.93596325700550
C         0.78594406300142    3.08337911136708   -6.37304725786581
C        -0.49808937523055    2.67298180344968   -1.81167513620692
C        -1.74386376877327    2.49459708389666   -2.45928879359163
C        -2.81089245918356    1.55739621283378   -1.96315702425154
C        -3.68605656647718    2.13911889045393   -0.84147097363746
C        -3.01616003299406    2.21214229012567    0.53621245717350
C        -1.94121745232375    3.31097130431217    0.61874239372870
C        -0.50431999039776    2.78948431737133    0.66032631520043
C        -0.11258847825269    1.94100029242723   -0.55846100866228
C         0.40453646405761    3.55890936324862   -2.46252082027109
C        -4.09081239324404    2.44549867676808    1.60080332126917
H        -1.68138308908626   -0.33375458615511   -3.90918938706051
H        -1.06356565619209   -1.41175702311261   -6.50930572811245
H         0.49906970134995    0.65657526565681   -7.94240407676420
H         2.67108725467269    2.20620103375091   -4.07939027147568
H         1.08415877008906    0.03286006473365   -2.29999702224856
H         0.62428456073967   -2.30540745851642   -4.00123075610583
H         2.02082020516153   -1.84950086717544   -6.67560587831098
H         3.13326508529467    1.06844496274167   -6.67405488395828
H         3.25385470764462   -0.77588674766569   -4.11426458412766
H        -2.61006860084884    1.16247965895389   -5.96885950328687
H        -1.64930766940383    1.55865435899256   -7.39033584319433
H        -3.77620854928562    3.18885578796699   -5.52581814513233
H        -3.74274475442087    5.57702196967554   -4.92575624735408
H        -1.61327934323481    6.82730906767181   -4.96618647542244
H         0.46941542140938    5.68560589133080   -5.61730957436633
H         0.77224713058156    2.99460182347775   -7.46655736495305
H         1.65815734799796    3.68680761174144   -6.11038512714735
H        -2.15762343167881    3.37203732158336   -2.96387804855146
H        -3.46932860864981    1.32110547431739   -2.80294430079784
H        -2.37146252690708    0.62044895790146   -1.62257031305832
H        -4.57092906665062    1.50361445807058   -0.75283199663600
H        -4.02893575363569    3.13651414222020   -1.12804154244632
H        -2.55177676402512    1.24337668244855    0.74407822514155
H        -2.10113176439894    3.89982968121206    1.52485545712423
H        -2.04787057723691    3.99208351108727   -0.22568462891706
H        -0.36023620773319    2.19294432530136    1.56352205767429
H         0.16595999281096    3.64987968537740    0.71985796476919
H         0.96377625328398    1.77102280432541   -0.53677241504747
H        -0.60874252485152    0.97417543884504   -0.50984894410181
H         1.38411936726598    3.68926905117280   -2.02310303104009
H         0.00852285702392    4.46980681207910   -2.90618677454700
H        -3.64721010379137    2.46612649191492    2.59367507020444
H        -4.59651082330031    3.39375191822834    1.42953993995197
H        -4.83530501397045    1.65231123759484    1.57898974139071

