89
CSD_code = ILACED | q = 0 | S = 0 | Stoichiometry = C32H45B9P2Pt | MND = 7
Pt       -0.71254471726593    3.00511466624741    6.01014649194667
P        -2.04871623369466    2.71439169581074    7.93968116186098
P         1.13269326347927    4.05285013175588    7.17260577566403
C        -1.57990129806572    4.42405468614222    3.91276149348981
B        -0.09202320364042    3.65070427473093    3.98740835272741
H         0.88590560403585    4.30794330290314    4.05233554680510
B        -0.98718355502252    4.03702324219100    2.39907134079722
B        -2.66578301329090    3.71203416776981    2.79407649076549
H        -3.54692037845436    4.36425048215654    2.37333584152137
B        -2.57332941278695    3.26694961257807    4.53210244065488
H        -3.41172170864275    3.59547282965487    5.29902646654443
B        -0.05411102941156    1.85978035741251    4.15713423846924
H         0.96197782442688    1.27777501382905    4.34362275559866
C        -0.14441296005862    2.55195608700282    2.61423525654956
B        -1.75582037444084    2.51838682104943    1.92590787569750
H        -1.91599419586511    2.27796870510674    0.78758811583697
B        -2.78083741989898    2.00982667715366    3.33291504095764
H        -3.78900801849589    1.41646843470503    3.18687937817764
B        -1.68649857522327    1.54123278596200    4.64647808291065
H        -2.06068277971702    0.64933715612931    5.33006332365393
B        -1.20300430829484    1.24721668032815    2.97097833816818
H        -0.99798547509304    0.18074755453597    2.51772487918436
C        -0.38216771841486    5.17342559346287    1.43180266285812
H        -0.80522093343153    6.15025717269061    1.68780216004695
H         0.69976597651529    5.26928131501791    1.57148983579320
C        -0.63221902687393    4.92826433013660   -0.05957703872950
H        -0.15406359970510    4.00523225164795   -0.38103079234449
H        -0.23044014067481    5.74379717270555   -0.65947896159229
H        -1.69848264868594    4.84916128196560   -0.25855817687928
C        -1.75046823247981    5.84119370857518    4.30581036257706
C        -3.02872289725777    6.39037269037287    4.45074658655872
H        -3.89295370175517    5.77134719711684    4.26951203787663
C        -3.21150509681636    7.70699314284473    4.82358418476091
H        -4.21387832540897    8.09924668364813    4.92405893748811
C        -2.12183106292848    8.52644946058812    5.06976578129225
H        -2.26335211877506    9.55763491405284    5.36018125117998
C        -0.84761207060968    8.00307522567391    4.93563998383943
H         0.01493899579975    8.62889780888379    5.12209417464137
C        -0.66642915023789    6.68596477140418    4.55816059131868
H         0.33981027572460    6.31056142190887    4.45809178594320
C         1.03000466391813    2.32663980546561    1.73299229638714
C         2.28338284384260    2.86626748597990    2.02102784816107
H         2.42060031473567    3.46098397529810    2.91010971172262
C         3.36983831062786    2.65017947347901    1.19375181741615
H         4.32668036856145    3.08671421396798    1.44456192428352
C         3.23899216470590    1.88025239235884    0.05191792509427
H         4.08636462729259    1.71329329019045   -0.59662830187070
C         2.00726294660461    1.32178856286108   -0.24293466407509
H         1.88968620293782    0.71021508413502   -1.12631746761354
C         0.92205506258917    1.54102156319382    0.58437706853800
H        -0.02515395964047    1.08988814766556    0.33539706023040
C        -2.77728292207221    4.29099513973450    8.51576225678300
C        -2.45773611791171    5.44042413128385    7.80472822918738
H        -1.81199416715656    5.35720455766307    6.93950443430507
C        -2.95754167327627    6.67182600376557    8.18728592447416
H        -2.70175303134722    7.55426280292440    7.62058491743411
C        -3.78898919030000    6.76388251927166    9.29030103122969
H        -4.18464800360465    7.72189712751000    9.59409223307848
C        -4.11565776906331    5.62263800026569   10.00539779938103
H        -4.76580135593515    5.69282505168872   10.86577446866167
C        -3.61301533332214    4.39265710468958    9.62208458259255
H        -3.87762079112750    3.51330573387258   10.19207386114299
C        -3.53482656219510    1.63654136563506    7.83493379405096
H        -3.20550872513211    0.60823934706414    7.70359245233386
H        -4.12251394932636    1.92258150693183    6.96685758000685
H        -4.14524409752119    1.71077346491429    8.73276355898130
C        -1.33792117431139    2.07382766789032    9.51887977926978
H        -0.54839654693828    2.73664803922523    9.86573055307404
H        -0.90427947531447    1.09307278949225    9.33585727970259
H        -2.10251448343709    1.99028268883909   10.28841732116764
C         1.77114585122079    2.83621923677519    8.37759718509521
C         2.34732718714426    3.14764487881508    9.60213060069714
H         2.43059932903902    4.17493570560078    9.92456347944255
C         2.81281943014149    2.13869926747708   10.42835928785948
H         3.25601684966787    2.38865538999401   11.38170047057625
C         2.71500122254547    0.81399585667480   10.03770681158687
H         3.08258690765828    0.03196062462708   10.68558682732724
C         2.14079628551442    0.49563007284047    8.81719000985614
H         2.05878537126876   -0.53672982802065    8.51050767192778
C         1.66678765676963    1.50125101822876    7.99637958544079
H         1.19294103365308    1.26611594283805    7.04915958924041
C         2.72388345266899    4.40038846444690    6.30400911762020
H         3.51493859214923    4.60132871201177    7.02551496446080
H         2.60337446562448    5.26162171118385    5.65068603996311
H         2.99466583756328    3.53483116073224    5.70334306132019
C         0.98989322999347    5.60906363818307    8.15268213992681
H         0.25964997481004    5.47824179139248    8.94894872374526
H         0.62839226505228    6.39141035683035    7.48710125203647
H         1.94786032206040    5.91586545425348    8.56828185214557

