51
CSD_code = ILACUT | q = 1 | S = 0 | Stoichiometry = C22H18CoN10(1+) | MND = 6
Co       17.41017405510810   -6.91348912299956    4.90633118530233
C        15.52926482844402   -5.29702540775323    8.73495797104264
H        15.47974911854748   -5.01809796360504    9.76745208012326
C        14.53447215718953   -5.58624423878934    7.83465517435445
H        13.48084636969236   -5.59502939189009    8.01739030711686
C        15.21243970594353   -5.89201438761726    6.63448034194014
C        14.69975539902345   -6.30054999414468    5.34016496501174
C        13.35218755028978   -6.15482505600225    5.02265844170894
H        12.67809368026502   -5.72260987835134    5.74347370246909
C        12.89699715436429   -6.56295985102524    3.78091323215952
H        11.85764339947121   -6.46057591507431    3.51263853383371
C        13.80854833337307   -7.10523891937364    2.89157365848127
H        13.49771583150082   -7.43131348702314    1.91293297127428
C        15.14366719542655   -7.22659695324531    3.26690497302373
C        16.12461692712274   -7.80216688543351    2.36589058224504
C        15.95314226819046   -8.53348075133840    1.17013132692504
H        15.03806413676475   -8.80415583391834    0.68754504657029
C        17.22659771992228   -8.84743962497744    0.76582663461416
H        17.57605638855957   -9.39659071846590   -0.08424804185238
C        18.37671192702917   -3.11427679753350    3.35475278616775
H        18.16050461041907   -2.18015195859404    2.87784547737116
C        19.56069237385708   -3.61842578255866    3.83564585367888
H        20.52149897834972   -3.14904527434463    3.81949354013529
C        19.22866142059360   -4.88418275759224    4.35161227905639
C        19.96381931627632   -5.94789190628461    4.99881085985256
C        21.32131615510896   -5.97131672518491    5.29455045176049
H        21.94613421234828   -5.13221771958398    5.03581539405593
C        21.84964778927922   -7.08961356017449    5.92518834236472
H        22.90009273765465   -7.13184927253053    6.16524208612095
C        21.01679865314203   -8.15252722343564    6.24453477309181
H        21.39874252633676   -9.03320186752052    6.73438848613367
C        19.66894241355841   -8.06273468702885    5.91935305804343
C        18.63289563884839   -9.04033596354919    6.15595713000640
C        18.56334400117719  -10.31759770479215    6.73954911528890
H        19.36127565157841  -10.88202520964257    7.17346046366947
C        17.24403588817073  -10.68336906915197    6.63096483089461
H        16.74138184056798  -11.57602546784320    6.94261845003788
N        16.52640838055569   -5.78005844380013    6.81467692597521
N        15.59161980373776   -6.83008445527211    4.47663588318743
N        17.42078910111642   -7.68539925306838    2.64352972056865
N        16.70061375343331   -5.42526823012376    8.07738930362600
H        17.62915445678888   -5.27371167966234    8.44068036048287
N        18.06783537987562   -8.31754647538688    1.67811196453335
H        19.07571273762537   -8.35419094501619    1.67924792991579
N        17.92236993951533   -5.11429078120815    4.18457628677334
N        19.15820046638662   -6.97851115774665    5.30805991874886
N        17.41935437049116   -8.67085386815383    5.72521675773533
N        17.42465205775463   -4.04185291383177    3.58440945002758
H        16.44483810470968   -3.98184856844171    3.35228304434679
N        16.59434851964362   -9.67083510505990    6.01873472505855
H        15.61327457487090   -9.62515479485391    5.78879126494456

