99
CSD_code = ILAGEI | q = 0 | S = 0 | Stoichiometry = C52H40N2O2P2Pt | MND = 4
C         2.46598289661113    2.77812319760721   13.85027082570008
C         1.84839852347965    3.74898234910839   13.06440951053120
H         1.59600889731614    4.70720300833325   13.49690601054324
C         1.55361334845182    3.49677686757724   11.73764248378779
H         1.07516935310426    4.25878715171759   11.13988767206214
C         1.86980020471637    2.26635667069115   11.18508199454501
H         1.64331636056628    2.06197123461446   10.14920639383691
C         2.46915392571562    1.29723805223975   11.96573859026144
H         2.70094548060924    0.32286423395553   11.56143880773435
C         2.78371864918852    1.53331992255480   13.30126484499949
C         3.40376459110312    0.36350727524270   14.02390266091981
C         4.91420371584386   -0.59341592053571   15.58031095740673
H         4.85722406916728   -1.39543907914485   14.82918760731878
C         4.23353136367974   -1.10528847299064   16.83913795840142
C         2.85687890010241   -1.31514703694517   16.78492526268793
H         2.32682610120122   -1.12183923140637   15.86457762316572
C         2.16517095535628   -1.79446465059436   17.88035536836300
H         1.09973926984803   -1.96164977826057   17.80891207343244
C         2.83593527436608   -2.06515567271673   19.06099536578134
H         2.29808790991240   -2.43680438663275   19.92185779138055
C         4.20384710596487   -1.87290166150205   19.12263206174898
H         4.74120852109540   -2.09565781369160   20.03360446996555
C         4.90159329735823   -1.40764308024109   18.01975259624599
H         5.97097323171445   -1.30319366360464   18.09873325890576
C         6.37158461127610   -0.15797886798615   15.77982931146516
H         6.96408685672642   -0.99116737212618   16.18652938465074
C         7.06695543027689    0.31310615380898   14.51321665021765
C         6.55482586878300    0.14438951315189   13.23231307619359
H         5.61503790172937   -0.35625270936867   13.06827115659669
C         7.25726900791808    0.60157743986899   12.12899980201588
H         6.83865561591829    0.46645297754308   11.14170574666487
C         8.48793556648386    1.21328350038631   12.28136463960986
H         9.03558760984509    1.55984675577817   11.41624095968755
C         9.01988963948092    1.36084497016061   13.55115987467297
H         9.99101045733839    1.81601648074336   13.68512629707559
C         8.31374253092890    0.91983386131261   14.65338103702615
H         8.74443498861227    1.02542368787192   15.63760791444450
C         7.24159637467893    0.83664236395396   17.74789866176794
C         7.16830899943357    1.78851241707112   18.91555766727705
C         7.71613889626788    1.30570454677661   20.10089854440084
H         8.12672670358583    0.30674033811349   20.09241707435649
C         7.74801057124714    2.07752132537592   21.24594496711329
H         8.17044694501692    1.67740317242561   22.15565507589920
C         7.24412133200362    3.36776479357014   21.22050047524050
H         7.27365746215391    3.98460896970917   22.10678796987776
C         6.70391584300666    3.87030729161788   20.05154326704585
H         6.31590853045547    4.87925779821984   20.03042252393293
C         6.65712248760639    3.08861449014209   18.89900597742011
C         1.59509852132686    2.23038898947740   16.52730452456670
C         0.29257509218944    2.07454781764623   16.06550925922907
H         0.01658913247634    2.46177860980934   15.09369971737409
C        -0.63571636783257    1.41354118854180   16.84972284068771
H        -1.64627924830701    1.28362572564575   16.49102365246462
C        -0.27120062269032    0.91605548756793   18.09111418901524
H        -1.00167210131042    0.40299233297078   18.69896373028693
C         1.02902984521453    1.06074096212806   18.54856994223960
H         1.31577886025820    0.65732277037849   19.50780243878680
C         1.96392143908973    1.70909210184788   17.76404011197825
H         2.99943086320053    1.80131135247802   18.09217634390590
C         2.50926799143750    4.85555801045435   15.78182456166312
C         3.44472260474725    5.75412669352993   15.27485916686281
H         4.34530745641689    5.36910511823779   14.81128872927106
C         3.22206238937341    7.11381130257677   15.36064661895757
H         3.94694741273250    7.80690576511985   14.96056189677273
C         2.06652020262554    7.58630349602587   15.96363541912170
H         1.89025751149337    8.64932328641750   16.03138694794890
C         1.14042518004684    6.69696919562285   16.48109495342105
H         0.24221905209730    7.06689708262534   16.95329146516685
C         1.35742569452564    5.33258802198067   16.39341166089596
H         0.63350679651879    4.63938306953796   16.79729852007579
C         5.20850369022402    5.29940785537307   17.86694750555621
C         5.80000936470994    6.52933377022142   17.61060346567371
H         6.73511824575073    6.57708392598727   17.07112687672152
C         5.18838781929223    7.69093379887919   18.04981178935275
H         5.65111281414207    8.64686516212278   17.85319556159964
C         3.99060364899176    7.63133202967341   18.74125752258346
H         3.51983221932685    8.54029323703769   19.08451862521619
C         3.39277132906561    6.40570325930312   18.99134079011630
H         2.45643218777890    6.35866267233175   19.52702825786327
C         3.99678975037995    5.24503523450754   18.55126071815390
H         3.53955379609369    4.27969821399949   18.73373131476471
C         7.35400080638800    4.15543146572104   16.32788030381095
C         8.55988794026938    4.61126654241692   16.84946796289560
H         8.68429748038198    4.69697852747305   17.92077483486637
C         9.59452870988271    4.93941661066578   15.99180884357813
H        10.53526450436046    5.28644909948535   16.39350416023423
C         9.42736625332915    4.82128488195931   14.62086314031074
H        10.23849595157561    5.08168440032683   13.95711280984463
C         8.23035898435206    4.35639332113698   14.09945407344369
H         8.10787708691014    4.24804034276280   13.03251102466956
C         7.19762016109103    4.01501240345837   14.95192677304444
H         6.26177132063575    3.61468809551694   14.56156175700202
N         4.19388800640908    0.57411822464928   15.07569290003094
N         6.35353663336668    0.92710287684889   16.75900042654241
O         3.19022922474927   -0.75740329458622   13.55015309645208
O         8.10886060696948   -0.04166791896407   17.80209488521879
P         2.88310097725049    3.08549757496451   15.58009107009560
P         5.93514162811741    3.70803372778052   17.36422571132148
Pt        4.82097897533627    2.13497216487047   16.20801686397159

