71
CSD_code = ILAJUB | q = 0 | S = 0 | Stoichiometry = C35H28Cl2N2OP2Ru | MND = 6
Cl        3.05678291780736    2.62543590127413   -0.33504499856774
Ru        3.97927795740984    2.05537191538744    1.79074254568480
P         5.40545195914530    1.85214399664893    3.58969264278075
P         2.00607948610374    1.97640698346608    2.87662868300289
Cl        4.18969657754565    4.33244882240230    2.46995098706724
N         5.89030430686247    2.39132749386813    1.14745353858804
O         3.80823135142416   -0.75848564705742    0.81386013460828
C         6.40704958217931    2.82198493899801    0.00957781061700
H         5.76033291798720    2.79043912951697   -0.86063313139283
C         7.70448790707337    3.31110591245191   -0.04937271941133
H         8.10277241791805    3.66450790742957   -0.98712911233389
C         8.45735948718903    3.35880073947950    1.11196256232790
H         9.46389305728381    3.75035960795089    1.09721189889041
C         7.90051243905978    2.91224333221502    2.30425746043861
H         8.45276343386137    2.96050816003071    3.23013126755621
C         6.60725658729486    2.42203696042479    2.28404038628100
C         6.05520394162756    2.81833465567528    4.98610919131797
C         5.36635587406095    3.91791133340557    5.48151218606448
H         4.41806970477198    4.18969949869763    5.04196430997634
C         5.90963837108903    4.66316561159440    6.51286880812432
H         5.37517210706056    5.52103448441847    6.89348675943978
C         7.13643478356754    4.31497473111109    7.05425358895140
H         7.55917455355731    4.89811593900173    7.85931622408530
C         7.82485612374148    3.21824082309071    6.56091660613260
H         8.78255130567600    2.94522536236591    6.98081180098718
C         7.28993375056456    2.47045640706233    5.52735705499154
H         7.82263196429383    1.60779279116445    5.14872420774474
C         6.06088906900673    0.16530261158291    3.84381665337380
C         6.48397529944637   -0.53953746507077    2.71745667488768
H         6.47538262296168   -0.06143634833013    1.74547135379248
C         6.91327507953530   -1.84806330516465    2.82455347704922
H         7.24176503613864   -2.37775340784928    1.94261464010233
C         6.91582925374047   -2.48016338140292    4.05780797673163
H         7.24459466324850   -3.50528130104067    4.14152381848257
C         6.49272629841529   -1.79080988550344    5.18067646792272
H         6.49133218009095   -2.27698174173484    6.14574899544884
C         6.06799418182431   -0.47746862855038    5.07631050149010
H         5.75107332742973    0.04852950650605    5.96233933097277
C         1.09590710492902    3.53655311512285    3.05871316097366
C         0.88285089097761    4.22857181152856    1.86615610447871
H         1.27605846719919    3.82573359021684    0.93883336119598
C         0.21402908325119    5.43732799947451    1.87981750746427
H         0.05506890348574    5.97268875666467    0.95555649527841
C        -0.23385500469143    5.96748118965931    3.07965813867862
H        -0.74936359341417    6.91679023668834    3.09260913687132
C        -0.00448070360796    5.29067531743606    4.26550166322088
H        -0.33778812257788    5.71346062591504    5.20266498773383
C         0.66073380773267    4.07630689427756    4.26294942361854
H         0.84730485315796    3.56571126365275    5.19776648829855
C         0.75081855368260    0.77877524141899    2.33638148972389
C        -0.41307645579801    1.14424779276013    1.67210069794361
H        -0.64199074411173    2.18936015300519    1.51981002262719
C        -1.27209842107339    0.16493464086974    1.20285339087389
H        -2.17487697865098    0.44997427054004    0.68301963711218
C        -0.97409278444176   -1.17396530169142    1.38969830357024
H        -1.64433687578304   -1.93372446498862    1.01582044570015
C         0.18973665874650   -1.54194898519936    2.04822061629916
H         0.42693417498150   -2.58643825541906    2.18726128056914
C         1.05257351710332   -0.57078406238863    2.51540605325004
H         1.97192628434249   -0.84388406206624    3.02127429017989
C         2.24940474006011    1.45820686106943    4.61628496295243
C         1.16683266554623    1.02880936568306    5.38356156044961
H         0.19700069640559    0.92421819179665    4.91924706727950
C         1.36178280549832    0.74911045802213    6.72291108530150
H         0.54566135018954    0.40132196597012    7.33899080421135
C         2.62293149778260    0.95494397772578    7.26319476696982
H         2.81753252409788    0.78512136035115    8.31034579219483
C         3.63558776399633    1.39181204471472    6.42670989658477
H         4.62001392747475    1.60348177544369    6.82240056132692
N         3.46505581906743    1.60464807930448    5.13018463072767
C         3.88140171664994    0.31265370692785    1.22022559212790

