90
CSD_code = ILAKEM | q = 1 | S = 0 | Stoichiometry = C45H37N4OP2Ru(1+) | MND = 6
Ru       -1.11521597717811    6.02793450531108    2.80079446894893
P        -1.06006587209883    8.24429076706531    3.47918103188404
C        -0.47626331961300    2.42107016271491    2.54082891022062
C        -0.72570638668123    3.85434137604497    0.17166164943721
C        -3.05695329349249    3.33007681501350    1.80991714265172
C        -0.57950801684642    1.22992969611636    1.82185179787387
H        -1.15892663120560    1.20687471154711    0.90797948203672
C        -0.97826424323437    4.08672302320950   -2.20424744130881
H        -1.61665154130388    4.20691235712940   -3.06679909109798
C        -4.94314340299292    2.04887716468966    2.48573718735334
H        -5.39185917366723    1.25400458857867    3.06273528762444
C         0.65612968628528    3.76072042193679    0.00417592721107
H         1.29217535954529    3.61513133702075    0.87001064283160
C         0.39434313793846    3.99834295011987   -2.36598309192249
H         0.82745610291249    4.05227976268584   -3.35314449960068
C         0.05374723506722    0.09080467601221    2.27841825769040
H        -0.03008090683843   -0.83040808149882    1.72195111236418
C         0.26959781039321    2.45531822912582    3.71096459858572
H         0.34560309487434    3.37934955246290    4.26649241370954
C        -3.58137636205039    2.29268402437300    2.57074953832247
H        -2.94274513641088    1.70383590337693    3.21199858100771
C         1.21153601417106    3.83049013622964   -1.25912721568122
H         2.28172611073035    3.75142185994636   -1.38085389571593
C        -1.54098558914019    4.02173906004809   -0.94115637441299
H        -2.61034258232952    4.09975062137074   -0.81003385180164
N        -3.80005860087349    4.10610824372955    1.02884761073166
C         0.90309867427400    1.31039197118337    4.16486755868114
H         1.47871021572000    1.34041151907360    5.07770112364164
C        -5.09537616003784    3.86285959545852    0.94949318543891
H        -5.65788944870711    4.51488405597425    0.29332692106722
C        -5.71822843897688    2.84398765098847    1.65616292955995
H        -6.78095339318001    2.68518728337120    1.56660906537384
C         0.79537508962688    0.12962688295139    3.45044834325168
H         1.28790833363404   -0.76264344491746    3.80522789414397
P        -1.32989916878574    3.89349111722530    1.89379814759225
C         1.06516586796090    6.64843532037158    1.01055969980572
C         2.35366017551930    6.89736699903338    0.54195027197002
H         2.50182383245350    7.31234024490440   -0.44065804464138
C        -0.14676265893138    6.90443078589899    0.23112960076933
C         3.44043734936036    6.61874078521962    1.34692714132544
H         4.44405670307259    6.80999714689067    1.00291041096648
C         3.20688216180425    6.08346708176143    2.60725735797476
H         4.02151033684927    5.84068061886239    3.26987813232427
C        -0.14101649144159    7.31580006976328   -1.10070523312963
H         0.78963304549052    7.47128432669750   -1.62009158546990
C         1.90445422607926    5.86530315718123    3.00742708246192
H         1.69806587561567    5.44409546780889    3.98290754845650
C        -1.34259467315628    7.51838745936510   -1.75210490323434
H        -1.35763955765543    7.84220338266478   -2.78100498478290
C        -2.45359718871197    6.86825414658334    0.25904145480184
H        -3.34379841761471    6.65969186124543    0.83324661951316
C        -2.52118408721430    7.28631656826546   -1.05795256045105
H        -3.47992451809161    7.42069849938529   -1.53138481694376
N         0.84532433388326    6.14406321259938    2.24468857266890
N        -1.29980961974310    6.69261752723963    0.89619201915889
C         0.33444243070013    9.18791754935527    2.75647949114814
C         0.17635743667516    9.64344092975186    1.44664417306932
H        -0.78304474251723    9.53681393298830    0.95402660883748
C         1.22550287001307   10.25050025833507    0.78295532260086
H         1.08714937248447   10.60510948942471   -0.22773958775119
C         1.56168883723941    9.35935059582290    3.38794622437071
H         1.69623518639067    9.03978673900076    4.41020622909375
C         2.60931262559731    9.96829009756844    2.71913259537181
H         3.55504572871027   10.10431321556666    3.22183726526684
C         2.44867249813446   10.40546651476762    1.41504690076138
H         3.26968454042783   10.87696105604155    0.89719933150435
C        -0.94762646686915    8.52324779496882    5.27320507165593
C        -1.78539998730945    9.36401657311289    7.36349620768168
H        -2.53144450203152    9.91851822653186    7.91233145534616
C         0.09795292042581    7.90535957397632    5.95999031545837
H         0.81204632929776    7.30010230757249    5.41418588162250
C        -0.72589074358930    8.77730611849801    8.03367466621763
H        -0.64014829113026    8.87879259338693    9.10446834674256
C        -1.90214009379390    9.23758665599608    5.98981886906398
H        -2.74511834664643    9.68334909967925    5.48270925340679
C         0.21403306715856    8.04127398508918    7.32966428607094
H         1.02965730599545    7.56381625985182    7.85166833996932
C        -2.42452512028535    9.33040988917602    2.95325351009346
N        -3.39990584923162    8.70938357404295    2.31086303943341
C        -3.50389870582583   11.44317701453767    2.75028638113708
H        -3.54372781611394   12.50934700257015    2.91760514329276
C        -4.53954817435949   10.78928267231920    2.09705910430828
H        -5.40473003289318   11.33059158683745    1.74886751052552
C        -4.43306779675328    9.42143867848889    1.89423657789482
H        -5.20648851161989    8.86914898722484    1.37695382689513
C        -2.41752681207024   10.70447810755722    3.18564056069649
H        -1.58171137200930   11.16673186709103    3.69187527462729
C        -0.99216195796761    5.42532876411696    4.54611857468710
O        -1.01996114352188    5.09120251128844    5.64492532211574
H        -2.62911460576899    6.04728462220942    3.06816878609128

