49
CSD_code = ILAKIR | q = 0 | S = 0 | Stoichiometry = C20H26AuNO | MND = 2
Au        6.87339212137710    4.16947835815878    6.75205959995257
O         6.91293985135492   -3.09258333064273   11.56002603006726
N         6.74563445974909    6.66195551253703    5.01392731118438
C         6.93205205805571    0.35028054706720    9.22089604422980
C         6.83176444653590    0.39623062017069   10.61440976757373
H         6.75303936156166    1.35478646837940   11.10755106136470
C         7.03601920576002   -2.06243449723956    9.34328599224155
H         7.12047205281806   -3.00797401394640    8.82878650075713
C         6.83025136135505   -0.76378978881633   11.35456676633054
H         6.75162911867135   -0.73831459935923   12.43090948597511
C         6.21428748664365   11.57214035770996    5.14473336643182
H         5.31298588581597   11.46942493120574    5.75278380704459
H         7.06437544732386   11.65896097811397    5.82474877435606
C         6.92950778994638   -2.00729809447610   10.72801644121959
C         7.03633678821703   -0.89395926049102    8.60303117587183
H         7.11814293535304   -0.94416341713335    7.52609669875671
C         6.92273122175624    1.54115557741095    8.45479167596168
C         6.96317679123955   -4.38226584585823   10.99433806315248
H         7.91095500969945   -4.52373126756914   10.45366248410882
H         6.13329433150716   -4.52072292327304   10.28571173375398
C         6.38489922482774   10.32491801905553    4.28023806675568
H         5.53481918407350   10.24116435903488    3.59886402369088
H         7.28759385827420   10.42926809119129    3.67343807431847
C         6.11266303518584   12.83371264798414    4.29669609877862
H         7.00992108747291   12.96374799802554    3.69565766989938
H         5.99413342086004   13.70953902779635    4.92944263251504
H         5.25748265598983   12.77630274383050    3.62695415643762
C         6.65878224399712    7.82038174472451    4.24280676038916
H         5.80599192946581    7.71403669555991    3.56339763053055
H         7.57407330111916    7.90291608349101    3.64652162072246
C         6.48467494592497    9.05898310105460    5.12658557421436
H         5.58132281015258    8.94521971436868    5.73000083253828
H         7.33455113513824    9.13576355756129    5.80841379167625
C         6.85564675368222   -5.39880181280319   12.12665191808754
H         7.64113360459601   -5.19139218274083   12.85518396337121
H         7.01744847939959   -6.39880847948171   11.71966453328032
C         6.91076225133437    2.55778366672014    7.79597758150735
C         5.48903905487315   -5.33179374938095   12.81573129499948
H         4.70712235949554   -5.54778166385031   12.08771402196684
H         5.34180373444065   -4.31074307012413   13.17639708806771
C         6.81132259835715    5.73401414635548    5.70970988565817
C         5.42770719134955   -6.27389139445913   13.97577300686029
H         6.13830392141127   -6.04809100396053   14.76147004176813
C         4.63506140784338   -7.32407395650939   14.12587086751866
H         4.71934539664923   -7.90880775088292   15.03425699113927
C         3.59358779368155   -7.82647704463858   13.17979250324702
H         3.56710303580204   -7.25903068451540   12.25503029648063
H         2.61074403584415   -7.77286932320231   13.64861983239118
H         3.78657182401047   -8.87226579212676   12.94090646085474

