9
CSD_code = ILAMOX | q = -1 | S = 0 | Stoichiometry = C2HI3IrO2(1-) | MND = 6
Ir        1.25921674619170    9.96352583360308   11.93006078295740
I        -1.39743081873726   10.34054766418876   12.44691312455986
I         1.06365367469913   10.17561190120177    9.21239352385620
I         2.05739236018201   12.61246980081847   12.40130533901378
C         3.06854704256751    9.75711770265470   11.50573261613991
O         4.17403096700640    9.67367002202423   11.22323392897436
C         1.32501920422834    9.86998954244331   13.79634542687479
O         1.34561727699358    9.85542574058727   14.94026411042833
H         0.97885354686883    8.45224179247832   11.79375114719531

