61
CSD_code = ILASOE | q = 1 | S = 0 | Stoichiometry = C19H33ClFeN3O2P2(1+) | MND = 6
Fe        4.58319560473164    2.27226372185101    3.14514188941450
Cl        4.65138782133405    0.13910326001380    3.59400527025402
P         2.45883769561874    2.44357249522585    3.66600376123871
P         6.69768651009701    2.45889635617162    2.60001547909057
O         4.96943161725449    2.00561245048137    6.01570351100640
O         4.23176809073352    1.98945243405458    0.28361854806401
N         4.52662328563973    4.22298119718697    2.91910096289882
N         2.34998089151543    4.14443634606011    3.64565682690517
H         1.47297840797835    4.62313041550257    3.80998963870656
N         6.67852677893690    4.09988948788964    2.13043473117792
H         7.51670569790920    4.57686806819345    1.82039002009132
C         3.39701015674419    4.89649774015146    3.18759125707435
C         3.31242022017479    6.27530136485230    3.01527613902979
H         2.39680525321175    6.79340559158826    3.24533921549820
C         4.42071351023955    6.95309421712430    2.54078996348214
H         4.38131979383237    8.02075224882654    2.39847669353604
C         5.57706448856994    6.25581057483558    2.24028206378775
H         6.44897394892253    6.75825412830514    1.85677520002087
C         5.59521994607580    4.87829462132487    2.43758104149013
C         1.77021703113369    2.06619057614648    5.35371428566483
H         2.53731575166326    2.39977661398169    6.06290426230474
C         1.57708657212238    0.55998445211162    5.51518939997314
H         1.37378044693080    0.32389650063723    6.55728344947204
H         2.47303624869510    0.01808454571993    5.21500202441194
H         0.73600295518992    0.20758558135286    4.92262990276489
C         0.48680233856919    2.83804502396800    5.66109695003358
H         0.08962658817788    2.48569009428698    6.61076588747161
H        -0.28193173801417    2.68034308120463    4.90789592648888
H         0.67366728442199    3.90501288382049    5.76210001227103
C         1.14033892999223    1.85806521578373    2.48888187766508
H         0.20507315441513    1.78858093074401    3.05684598509401
C         1.50998078490956    0.46373786308975    1.98651740701822
H         0.67340606168796    0.02827444387627    1.44491676080735
H         1.77242351203119   -0.19978769208024    2.80700524914226
H         2.36188190414625    0.50738766957862    1.31413646679356
C         0.95514915252296    2.83986293191965    1.33554989733249
H         0.30707256501046    2.39626159601643    0.58286351007429
H         1.90613653308400    3.07640075304466    0.86183843170105
H         0.49555323598492    3.76914953207381    1.66661234231140
C         8.05928802931543    2.42880833011534    3.86449271645347
H         8.99940594989548    2.59826259312759    3.32578048956611
C         8.10306967634615    1.05935238519297    4.53493605219777
H         8.91211741598847    1.02362576092490    5.26128140357521
H         8.26791721167832    0.27082259230906    3.80426242177947
H         7.17128275359228    0.84341102899415    5.05090051532036
C         7.86460910065419    3.56064924066211    4.87029071380232
H         8.55751265188927    3.43553736794652    5.69921968954979
H         6.85467653595633    3.56592623655341    5.27486777461983
H         8.05339335726798    4.53312846973572    4.41890049648767
C         7.37742648656687    1.66258148974159    1.06037669902024
H         6.79163718598897    2.13516421478244    0.25866257044061
C         7.10200457873341    0.16093216219243    1.04775757078662
H         7.28989827325020   -0.24066333449542    0.05458990973017
H         6.07017927167777   -0.05650215888209    1.31682610462054
H         7.74766212252215   -0.36315621361305    1.74756369556792
C         8.85464717061214    1.95564726161033    0.81014281957165
H         9.11121158935840    1.63504605283437   -0.19753220785405
H         9.48960866354666    1.40431405057229    1.49949015537488
H         9.08069905077467    3.01839713755649    0.88708294566805
C         4.87891532767956    2.21254017066296    4.90083286261330
C         4.30636856450890    2.06941584455949    1.41745235954711

