74
CSD_code = ILAWAV | q = 0 | S = 0 | Stoichiometry = C24H41CrN3O3P2 | MND = 6
Cr        2.94623707070438   11.19578333197400    4.20735203475674
P         4.27062398505799   11.76377508533106    2.33599598286410
P         2.23348971687675    9.93426302425468    6.07161155802208
O         0.46692063367345   10.65442238787238    2.64646640670610
O         1.38790308409686   13.71028609329126    4.53980283504463
O         4.18146744573415   13.30302580364993    5.94082724698563
N         3.91582674120735    9.31052186236067    3.81986979078034
N         4.97269122131276   10.25035745852287    1.98822255530032
N         2.74466470524672    8.38335077433862    5.58688476988826
C         4.69392707818993    9.13832280714487    2.73519881121462
C         5.20961629344752    7.89842184667685    2.35925946464269
C         4.89775345189038    6.78450476958002    3.11702620272773
C         4.06872813880247    6.93894643575773    4.21308187338792
C         3.59339432191936    8.21155483500358    4.52757090577519
C         3.45048644155701   12.17985342876285    0.66104726677783
C         2.78318535363238   10.89216632925993    0.17252318717708
C         4.32647913185405   12.72049330314510   -0.46648672982432
C         2.38244769368208   13.21987090319892    1.00340957942210
C         5.89764959178736   12.75703969496207    2.49857765989615
C         6.59359919583691   12.13393245488996    3.71272598555381
C         6.89813307450265   12.70224835748952    1.34038652498961
C         5.51492590064849   14.20327467471276    2.79967278441419
C         0.38694611316938    9.60226115219939    6.41511644204133
C        -0.12327645521972    8.66924194208194    5.31517548262210
C        -0.00463865045610    9.00223774006056    7.76364732418116
C        -0.26837312097671   10.97714807349707    6.26942116604969
C         3.16917822545388   10.01859007868033    7.74325843233794
C         4.64478531179861   10.06101559318825    7.33268917205378
C         3.00921556687887    8.84176047694872    8.71026614606906
C         2.78636595017890   11.32645157833701    8.42988045620587
C         1.49946954420969   10.67079781276651    3.19232239736073
C         2.00335438257637   12.72602295245407    4.41553285627717
C         3.85651869846819   12.38314720349956    5.28975659656056
H         5.83815483180425    7.82102858718335    1.48597849073041
H         5.28539524355824    5.81329987729852    2.85298850104631
H         3.78439124934180    6.09446831551110    4.82111661070263
H         2.31880435745477   10.35729451567256    0.99870437053297
H         2.00756068617918   11.12923312306586   -0.55354216264818
H         3.50276663126159   10.22876905837479   -0.30576631039383
H         4.70382209881523   13.71263814799174   -0.23617046688083
H         5.15785074431222   12.05669722158285   -0.69103085648669
H         3.71811327741021   12.80356446881899   -1.36766893361457
H         1.65685047165761   12.80726407375596    1.70007453966659
H         2.82941830589961   14.09661657191599    1.46902022098057
H         1.85717885456285   13.53750886066633    0.10352256200569
H         6.97406737391259   11.14122696193855    3.47361616478508
H         7.43127405398343   12.75590049290616    4.02460931611955
H         5.90673693023364   12.04382151461548    4.55117230661984
H         7.01918588447280   11.69248837746416    0.95289373441359
H         6.62944303466551   13.36483286112816    0.52621059570204
H         7.87117205458845   13.02516819123070    1.71095801040662
H         4.79230139151904   14.24370808056546    3.61270160421447
H         6.39319682624990   14.77776191318626    3.09201962906805
H         5.07427656469293   14.68081328300821    1.92654000446031
H         0.27960471067678    8.94989283698375    4.34620233047289
H         0.14759095992987    7.63349282756466    5.51458326098037
H        -1.20892532366218    8.72861053172958    5.25859485581842
H         0.48173898998988    8.04548645472613    7.93742953920547
H         0.21710871238664    9.67896778712517    8.58369385345074
H        -1.08127698159420    8.82920696301095    7.76513174481186
H        -0.13845272778963   11.35320476213586    5.25691390505808
H        -1.33469571202313   10.91885311283639    6.48366025054604
H         0.18227636058591   11.69584838717760    6.95254679457096
H         4.96232768928185    9.10239770301757    6.92179554846269
H         4.81702263986552   10.83000176663428    6.58182277088834
H         5.26858407775994   10.28395205607091    8.19720694445119
H         3.05954027327919    7.88271532010324    8.19773390322678
H         3.83093276499741    8.86847195771201    9.42620349800056
H         2.08754074781246    8.89177136404829    9.27786241694194
H         2.89503769707139   12.16316207925349    7.74342027012724
H         1.75589679920961   11.30247058185073    8.77810927455265
H         3.42955247005505   11.50481174577739    9.29110659592456
H         2.51861110955125    7.55311840930621    6.11983774885304
H         5.52522803831682   10.09986858916031    1.15350339396931

