57
CSD_code = ILAZIG | q = 0 | S = 0 | Stoichiometry = C28H22N2O4Zn | MND = 6
Zn        7.49915912129533    3.48684444200515    4.54673848791432
C         8.17278386559903    5.83348140273323    6.01416886183069
C         7.98394084974161    6.66374422402461    7.15764361022388
H         7.17040496823052    6.40083961933957    7.81705015830912
C         8.77864338745406    7.74309311684763    7.41128458006309
H         8.59935415600268    8.35322297954864    8.28557071735757
C         9.83269811948696    8.07567072633061    6.54612423290179
H        10.45403258980251    8.93277398913241    6.75693803119750
C        10.05702814975095    7.30490819814120    5.44228492835138
H        10.86670023698011    7.55106448689309    4.76738271784258
C         9.25536695957528    6.18064516599330    5.13664719059394
C         9.57306474845347    5.45118544632109    3.97289984881438
H        10.43597392306908    5.82357564775692    3.40879253088948
C         9.35027255986153    3.78010903371696    2.35854894144166
C         9.89528650544563    4.46339217361475    1.26826913751899
H        10.01272085964092    5.53538320865809    1.31608648323059
C        10.24799654979418    3.78957912482483    0.11518386809134
H        10.66454150325989    4.33825425667775   -0.71628583618217
C        10.05944175705229    2.42150896147269    0.01556815900648
H        10.33292950312253    1.89667388914198   -0.88665496346247
C         9.49167483059766    1.73007395075692    1.07234626495673
H         9.30676700554900    0.66827574727967    0.99850110859926
C         9.13121643038777    2.39912039448946    2.22951221918911
C         9.31970601099477    0.86639139189220    4.02753838608655
H        10.00602918183806    0.29674289165759    3.38890629731714
H         8.63879612767293    0.17813820214670    4.53683800770965
N         8.96942956968557    4.38345313709247    3.54577826559792
O         7.38793915377027    4.84550147670749    5.83481924436880
O         8.49717550244257    1.71749495859247    3.25818829505150
C         5.15255339275849    2.81316884845851    3.07928810720576
C         4.32219916437364    3.00209547210869    1.93589334754391
H         4.58511779184140    3.81561243267030    1.27646924363084
C         3.24278582666521    2.20746097147235    1.68232121138882
H         2.63283183188690    2.38655671315658    0.80787808304868
C         2.91027492687692    1.15334195562610    2.54742656959444
H         2.05330320246544    0.53186466761594    2.33650217658472
C         3.68109123667931    0.92896849037883    3.65121562051252
H         3.43492082333008    0.11932145654190    4.32614329510695
C         4.80536732398886    1.73061799942867    3.95683693134991
C         5.53480837485915    1.41294870581753    5.12060101605671
H         5.16237107010491    0.55009047037337    5.68475479783198
C         7.20589730860224    1.63572146070792    6.73493582485319
C         6.52261647664130    1.09069012969096    7.82520980805783
H         5.45061657121809    0.97332227054223    7.77742407975659
C         7.19642240527806    0.73800810223099    8.97830819163566
H         6.64774656214923    0.32145315005120    9.80977112394224
C         8.56448137489730    0.92663524504937    9.07795782904025
H         9.08933722393315    0.65302176561553    9.98013032949535
C         9.25592408717082    1.49436010563025    8.02116127450359
H        10.31773211682181    1.67921754670786    8.09498520015512
C         8.58688645343266    1.85478240053598    6.86397759290217
C        10.11964404153158    1.66626526897316    5.06598394559646
H        10.68929878816286    0.97996053042230    5.70463915825354
H        10.80788513759633    2.34717494879277    4.55667153600733
N         6.60255708727176    2.01656779084069    5.54770836378652
O         6.14052746408668    3.59802488267893    3.25863829741756
O         9.26852780882481    2.48880397409337    5.83529726992971

