93
CSD_code = ILEGEL | q = 0 | S = 0 | Stoichiometry = C40H44MoN2O4P2 | MND = 6
Mo       -0.00016289522873    5.05558272336415   11.03691871985680
P         0.11020489302840    3.51969576465493    9.24602156139005
O         3.07779458723297    5.37587744291104   10.98186487869775
O        -0.35270085423557    7.48701492317155    9.15502226562144
N         1.16395083640686    2.25500807041826    9.52930986797390
H         1.92204854846187    2.51406295654542   10.15349136432375
C         1.93955202218138    5.26260397867537   10.99718518149418
C        -0.21248824127652    6.58706857261826    9.84453163898045
C         0.51278280224702    4.11093990563936    7.56004804099501
C         1.43383233906558    5.14822998852139    7.45988328798800
H         1.81757600708012    5.60214703013455    8.36614779316032
C         1.85643649006218    5.59477001782328    6.22147049239895
H         2.56800383099368    6.40469424862138    6.15356645431471
C         1.36580135434671    5.00155953386914    5.06939942299779
H         1.69313683431261    5.34896537172051    4.10052393391392
C         0.45481559669537    3.96224250613412    5.16106186666346
H         0.07353246188328    3.49725170502065    4.26325372452335
C         0.02935334170937    3.51504723970270    6.39933324272853
H        -0.68786970950208    2.70757401465258    6.46245032375501
C        -1.46540518085204    2.67494032463216    8.96262727004390
C        -1.74340434560899    1.44613760081998    9.54669639384185
H        -0.96484828019470    0.93672005234556   10.09727432541771
C        -3.00815973152208    0.89606480276082    9.43457823911759
H        -3.22073186742339   -0.06303037765766    9.88508051601120
C        -4.00444032596190    1.57793766637652    8.75599743032832
H        -4.99203369113734    1.14839206956431    8.67184556332557
C        -3.74102743914198    2.82048010649384    8.19932401857139
H        -4.52462454557491    3.36098312514148    7.68811780989962
C        -2.47889110716402    3.37099740354231    8.30803758188186
H        -2.26392126376661    4.35006267117922    7.89370464969367
C         1.56574183079311    1.28901914953628    8.51380568717838
H         0.74562754587401    1.22805111536293    7.78843563628410
C         2.85027873689219    1.70324254436884    7.79291462971771
H         3.65753234079720    1.78316446825337    8.52653716364768
H         2.71632396369444    2.68482395840376    7.33355283968043
C         3.22419232622012    0.67451968614188    6.73045983534438
H         2.43177176288854    0.63076893757948    5.97954519353860
H         4.14335145990777    0.98213066154817    6.22822394534675
C         3.40758673398219   -0.70234058284289    7.36091622903191
H         4.24302690666141   -0.66978282122474    8.06394679192656
H         3.64796116416949   -1.43643861424117    6.58954719868156
C         2.14047405727844   -1.12063590292023    8.09983598402046
H         2.28860300893579   -2.09285102018638    8.57382156552536
H         1.31943113836610   -1.21764606568323    7.38564388016932
C         1.76688435593437   -0.08557433209685    9.15687468668876
H         0.85363938174256   -0.39038907193263    9.67000956566566
H         2.56218655065833   -0.01565715399541    9.90308123674814
P        -0.11083743531288    6.59172279698014   12.82863331607802
N        -1.16434642926234    7.85670819684186   12.54577145878339
H        -1.92272307397105    7.59785598582693   11.92184199099255
C        -1.56552290154330    8.82264590513750   13.56156835951864
H        -0.74517983578816    8.88316591483983   14.28671533318124
C        -2.85000491948386    8.40876587601950   14.28274779927680
H        -3.65751542681398    8.32935335377925   13.54935271324245
H        -2.71631116966602    7.42702179413809   14.74183668955711
C        -3.22316070907282    9.43738789316582   15.34556770907614
H        -2.43049931495212    9.48061840417393   16.09626031451458
H        -4.14229878064287    9.13003147422845   15.84799932069591
C        -3.40616724917318   10.81448043810672   14.71549691055179
H        -4.24186323120500   10.78246684300519   14.01274415010734
H        -3.64595843583899   11.54849043556722   15.48712960881135
C        -2.13912254683680   11.23242528986461   13.97626108737893
H        -2.28699125512999   12.20481326252477   13.50254820246361
H        -1.31779858993927   11.32891660741921   14.69020053180607
C        -1.76632455199433   10.19745214970540   12.91885773568143
H        -0.85312889284471   10.50200205582324   12.40548275218804
H        -2.56191211334373   10.12801587481459   12.17291406625525
C        -0.51338663067597    6.00015043841404   14.51448306664414
C        -1.43462921518658    4.96301999877612   14.61451838735283
H        -1.81853606387272    4.50934712534044   13.70820010005311
C        -1.85724050113926    4.51635528322747   15.85288514857785
H        -2.56896571249853    3.70656120273754   15.92070570831346
C        -1.36642621657153    5.10927788906986   17.00503030438599
H        -1.69374653625661    4.76175196779290   17.97386761525125
C        -0.45525215095058    6.14843811848907   16.91349344855472
H        -0.07383048741006    6.61321817961720   17.81134915097481
C        -0.02978008636912    6.59575316180249   15.67527028008294
H         0.68758278895578    7.40310687208566   15.61223502404881
C         1.46494860360498    7.43615561002400   13.11202099855197
C         1.74304675071067    8.66482030959562   12.52769727919828
H         0.96448254676786    9.17420113390067   11.97709782307851
C         3.00787148848939    9.21478070923320   12.63957133786053
H         3.22049278437338   10.17377590277353   12.18888133155674
C         4.00414332390587    8.53292343149852   13.31817815043831
H         4.99178454045404    8.96239256252348   13.40217806963503
C         3.74064322921626    7.29050575727580   13.87508831487245
H         4.52424374677339    6.75001986792822   14.38630978752006
C         2.47843383230436    6.74009193937189   13.76660622774712
H         2.26343783578442    5.76110507594820   14.18110453729573
C        -1.93992756228887    4.84874640147091   11.07685528480502
O        -3.07817145180795    4.73566933142326   11.09265104067052
C         0.21166101219172    3.52441310617740   12.22976919115584
O         0.35206126240373    2.62475167607403   12.91960241210544

