49
CSD_code = ILEGUD | q = 0 | S = 0 | Stoichiometry = C23H19ClN3O2Re | MND = 6
Re        8.08533071432241    4.17311422812707    1.55212856331380
Cl       10.24057808093553    4.07621249138793    2.52806348324867
O         5.25117144740064    4.28139534817713    0.34001038079460
O         7.06048712225829    3.36670974598075    4.34893897912781
N         9.18346387642293    4.66554319845167   -0.02430099538496
N         8.25409550282258    6.28567549623114    1.74160265682658
N         8.54897335497029    2.28160798500043    0.69669999037705
C         9.28720601293094    8.30266654743445    0.74957719372709
H         9.13678507880976    8.64612816062194   -0.27308714289442
H         8.62973401280070    8.86117481555427    1.41146265489264
H        10.32034425416462    8.51076553940388    1.02823771552122
C         9.00616949532222    6.83501266788170    0.83427325512602
C         9.57583139164714    5.94044850895332   -0.16259484205045
C        10.50656688133352    6.29818855029435   -1.14167029032359
H        10.82417764310109    7.32177972563415   -1.25143241091088
C        11.03797148704927    5.30424410364380   -1.94776239412171
H        11.75741095920644    5.55674491017942   -2.71192920312359
C        10.67823123717593    3.98147828158680   -1.74548110335720
H        11.12983057131884    3.19513450202486   -2.32718858457471
C         9.74308372681068    3.68625682482791   -0.74990107687920
C         9.33821464631501    2.35150343951623   -0.33430713136967
C         9.81734267507258    1.16419988576953   -1.10949757351696
H         9.67978061119850    1.34207316894480   -2.17525639531115
H        10.87866080367276    0.99326226309040   -0.92888796852760
H         9.26834508195519    0.26966225194960   -0.82573540450739
C         7.75816985020821    7.01394646489479    2.83424018240451
C         6.38721676085896    7.02168425700452    3.08981213251249
H         5.72786041208778    6.49075767677316    2.41868619154110
C         5.89684159269306    7.69477109027523    4.19079441004997
H         4.83418470666591    7.70460173505637    4.37946078794129
C         6.76168851989727    8.34500139476657    5.05804728460274
H         6.37433370287814    8.86057283872894    5.92366888726935
C         8.12474755678648    8.31733808023699    4.82006727542598
H         8.80502357844485    8.80537748069704    5.50203528584191
C         8.62619179240089    7.66452777079171    3.70905724800178
H         9.69122252465290    7.61498916858418    3.53782856291820
C         8.19404942055582    1.05358447371319    1.27674329008817
C         6.84624927369647    0.73324641216541    1.43688787971659
H         6.09854495521341    1.42664379163586    1.08034394181462
C         6.48915192883996   -0.45110543714999    2.04977556032880
H         5.44466522457641   -0.69821938084896    2.16370460294578
C         7.46281327811538   -1.31476593701639    2.52811866030069
H         7.17840784492185   -2.23445673392490    3.01643882433551
C         8.80055613485768   -0.98677894004529    2.39276456792068
H         9.56307547221328   -1.64581252301760    2.78030487771940
C         9.17115346805473    0.18638929935169    1.76169942789576
H        10.21280130992449    0.45960514304381    1.68171477722122
C         6.30816614281441    4.23798424774219    0.80268439528849
C         7.36799787962305    3.66763498587731    3.28445858981670

