63
CSD_code = ILEGAJ | q = 0 | S = 0 | Stoichiometry = C28H27BrN3O3Re | MND = 6
Re        6.08840512362881    7.70133393350206    3.88964297290560
Br        5.21340321594096    9.09059057659493    1.89462063908119
O         4.59963172123579    5.14199780305796    2.99920451965325
O         7.05385795739325    6.20433083638388    6.40990058489433
O         3.47503337746462    8.81323667231335    5.11995985514460
N         7.82419042137765    7.25411721839468    2.75998419879232
N         7.41801761954047    9.53578879544066    4.07646874055668
N         5.75658024241917   11.82120596330262    6.16028085232442
C         9.78615537307030    8.10841311752316    1.55556219754656
H        10.66062611850164    8.56144938793432    2.02006825813601
H         9.99359341122431    7.06067334589976    1.34872347018452
H         9.59967808479450    8.61402234408216    0.60768217495818
C         8.58989784550517    8.23847980263564    2.44434331535091
C         8.27873243733009    9.54244903242918    3.03305280854201
C         8.85204736070568   10.71449040221255    2.54566094024892
H         9.51595796030080   10.68170708844929    1.69844517019036
C         8.51067809213991   11.92121827744814    3.12691574489385
H         8.89452947443366   12.85017971725753    2.73511510512097
C         7.68406128962961   11.90418233617984    4.23237685393005
H         7.40490730348614   12.80776699313070    4.74910335137332
C         7.17356638768836   10.69136209519752    4.70337220014334
C         6.41271817011988   10.75597489820902    5.97406952459089
C         6.55425622574403    9.63561088235791    6.96405948383384
H         7.53140020513370    9.16420646642546    6.88579638814172
H         6.40685260859223   10.01720233594992    7.97093590426675
H         5.79148401183669    8.87676440263328    6.78631661541052
C         8.13984320692193    5.93428404345468    2.33698707031853
C         7.58909764526229    5.42150537065873    1.15671229685637
C         7.85877156693551    4.10358912326165    0.81953632042357
H         7.43238509763436    3.69933431667686   -0.08621816531276
C         8.65923253667550    3.31078432477358    1.62072983566589
H         8.85338377921882    2.28530011379708    1.34600997709712
C         9.21833515875860    3.83876549512467    2.76759693162851
H         9.85798715217267    3.23144924575187    3.39062123326744
C         8.97641009068372    5.15402721557088    3.14044411174274
C         6.72527687426394    6.26557263297658    0.27417536776514
H         7.15397263988685    7.25336286215066    0.11165202071064
H         6.58259887469690    5.78617781563965   -0.69058038984870
H         5.74327284607932    6.40838747020023    0.72558729936850
C         9.64001189235120    5.69701279999301    4.37301192787782
H         9.25979103610297    6.67804276827188    4.64879147527242
H         9.48026274266345    5.02116510175419    5.21075533804550
H        10.71551658601987    5.77951897419531    4.21031405436154
C         5.09999038315043   12.21641413762644    7.30918792861470
C         3.70685562660470   12.37561832454919    7.24205782387116
C         3.02940441376130   12.86437091522637    8.34472342544881
H         1.95547590295054   12.97078850900552    8.29698437800090
C         3.71069297337664   13.22580986458924    9.49418428576312
H         3.17243248099868   13.60940038784216   10.34775496967424
C         5.08653914150434   13.11145374830194    9.53573026915652
H         5.62795702379048   13.41637120355086   10.42009185050722
C         5.80191930132414   12.60967073607914    8.45738936755166
C         2.98021924829234   11.98343625096802    5.99433300409214
H         2.01455918236026   12.47945210607808    5.93868870078015
H         3.57220078767104   12.24194970530793    5.11774435290389
H         2.81181006401664   10.90725126192145    5.97365687857552
C         7.30199801527437   12.54949493244123    8.54387554279943
H         7.75582679149913   12.37531724490866    7.57101278847797
H         7.68723899582555   13.48746680242414    8.94079582646854
H         7.61772772275448   11.75260610932389    9.21893827289142
C         5.13308124809113    6.08956149525399    3.35724555823138
C         6.72578309988574    6.77281947922500    5.46663518315941
C         4.46367583129862    8.37921238617870    4.73928101758302

