120
CSD_code = ILEHEM | q = 1 | S = 0 | Stoichiometry = C56H56ClN2P4Ru(1+) | MND = 6
Ru        0.00349847590935   -0.17002342097672    1.31012583035382
Cl        1.70875321376504   -0.16133462323188   -0.34223733860929
P         1.25482570481893    1.30806755098459    2.67349653060904
P         1.44114582549901   -1.78812790819224    2.25657705128192
P        -1.31348311278170   -1.64756969464984    0.00877844310623
P        -0.90738032429616    1.45129813979776   -0.14686879008151
N        -1.26763692733212   -0.17649712371472    2.54129137559254
N        -2.07114195792351   -0.17997883654683    3.31853830442104
C         2.56060855052188    0.32836937104551    3.58549423102955
C         2.99175211598391   -0.85178304955010    2.70377718851291
C         3.73628934685761    1.18886213372042    4.04286502507980
C         4.02961524749147   -1.73870425111104    3.38346207488706
C         2.19692803090969    2.74940090733292    2.08163609485515
C         3.10149855047873    2.59104476849776    1.03451950171349
C         3.90465612624068    3.64620225877625    0.64498423894334
C         3.81750864367653    4.86478210609411    1.29678976504398
C         2.91313574783847    5.02939136039575    2.33256405714088
C         2.10361499628255    3.98011681814685    2.72654024050518
C         0.20631718810640    2.02743397924006    3.97286460356517
C         0.48370435122826    2.00230564016810    5.33525934185181
C        -0.40325108043068    2.57915966315400    6.22892798161546
C        -1.56520590752158    3.18218168266174    5.77843084013359
C        -1.84866208007960    3.21026164398637    4.42174437953748
C        -0.96851338514263    2.63382490441746    3.52864054772889
C         1.08878439320244   -2.59806401607892    3.85389341634396
C         0.29436549768767   -1.92919443301708    4.78257973185219
C         0.05755880894264   -2.47770460931883    6.03031601075653
C         0.61463148971302   -3.69970948290231    6.36672869843761
C         1.41754158465168   -4.36486706657387    5.45383726318241
C         1.65869347969170   -3.82000363519009    4.20605213455917
C         2.00144819583937   -3.15256893490976    1.19980621268902
C         3.12225050726359   -3.03890557948073    0.38178526533602
C         3.52004276665362   -4.10792876008502   -0.40070749776090
C         2.80916517764098   -5.29539682499003   -0.37749934945710
C         1.26919007628063   -4.33975046114508    1.19131976714255
C        -1.29948384717802    0.52190452664043   -1.71628509102242
C        -2.18837334803200   -0.66513866243347   -1.32035297993408
C        -1.94957510859086    1.41174101835746   -2.77051512832068
C        -2.60356465335827   -1.52117535458836   -2.51472855693551
C         0.15916425598429    2.82445159823536   -0.66571744854745
C         1.01389015150830    2.72019972434667   -1.75976019458200
C         1.80260214747507    3.79532519143987   -2.12761866840098
C         1.74904632350004    4.97976334802366   -1.41332830618802
C         0.91819305898565    5.08219846682352   -0.30963857804900
C         0.13731139727266    4.00836565125669    0.07153683532781
C        -2.52002515312885    2.24991968556730    0.15903576147385
C        -2.86053077272495    3.47398162808565   -0.41343185668125
C        -4.11863002134388    4.01019427031365   -0.20925297765075
C        -5.05352877906430    3.33401372150446    0.55835010889664
C        -4.72847119689194    2.10975607169267    1.11722363205613
C        -3.47036900430308    1.57009505740857    0.91781180257208
C        -2.64206560328024   -2.37830956161361    1.01198185403750
C        -3.99534857426445   -2.35591360324539    0.69301866471455
C        -4.91393515470981   -2.94051289902634    1.54896268009467
C        -4.49733453255120   -3.54885038721337    2.72071587658750
C        -3.14984774747746   -3.57452067652501    3.04540710822118
C        -2.23207734792740   -2.99011811226405    2.19645283900224
C        -0.68510734495731   -3.08101198030869   -0.92143341642709
C         0.38817025036254   -2.91199093596937   -1.79288967480752
C         0.80850496764384   -3.96079589433887   -2.58871315880200
C         0.16177350580457   -5.18368339708585   -2.52727676689207
C        -0.89998899440988   -5.35894089683834   -1.65567976055024
C        -1.32492035587787   -4.31600678559601   -0.85358539630922
C         1.67978853035461   -5.40731583404678    0.41681438814655
H         2.05225704566374   -0.08661647957269    4.46896347833795
H         3.40393934895386   -0.46000243153267    1.76418040181755
H         4.33665597517960    0.64879876822806    4.77157337577608
H         4.37093365484042    1.45970606287387    3.20140347246989
H         3.38526477195303    2.10909306380841    4.50750864135636
H         3.71642843804004   -2.00117759221546    4.39267188442882
H         4.18003525894455   -2.65769524823876    2.81933408838101
H         4.98523532030889   -1.22279645074929    3.44104224979988
H         3.17030338463116    1.64841641771483    0.51272452233683
H         4.60433062714597    3.51312516178244   -0.16625514120906
H         4.45197977487345    5.68513564545803    0.99803587144354
H         2.84038321628495    5.97831856953709    2.84264936462873
H         1.40285338940205    4.11951975612067    3.53714335918125
H         1.38419967117137    1.54084959588182    5.71130901382822
H        -0.18193297436405    2.55574049672130    7.28536657833131
H        -2.25112331852188    3.62629103852696    6.48305152677206
H        -2.75566174050281    3.67216097297928    4.06174592527790
H        -1.19021771528571    2.63487480097912    2.46548865078170
H        -0.14810175340350   -0.97333158409510    4.53400509235401
H        -0.56487698536058   -1.94809736894135    6.73557978263817
H         0.42675733205123   -4.13211139189110    7.33741617458011
H         1.86271947522059   -5.31303546615392    5.71492084407262
H         2.29165454026431   -4.34742129527585    3.50796257263211
H         3.68344057146015   -2.11819989017562    0.34305869508202
H         4.39394315458037   -4.01198237515888   -1.02718683337480
H         3.13139134766742   -6.13167155824485   -0.97862319144986
H         0.38490706783259   -4.43562806046919    1.80712659749007
H        -0.34501981980861    0.13727232844970   -2.10005718544654
H        -3.08985105264078   -0.25751686301297   -0.83842028012123
H        -1.38463953831390    2.33372524891486   -2.89786990023086
H        -1.97460374441454    0.90092303967485   -3.73024820252841
H        -2.96926378594924    1.66858566657256   -2.48815946893815
H        -3.31441095906394   -0.98072218824116   -3.13580828181782
H        -1.74080948260855   -1.78556048280636   -3.12294616279870
H        -3.07586567491810   -2.44489750000693   -2.18364512389583
H         1.07629639658572    1.80209991348173   -2.32306382273364
H         2.45786169576065    3.70650548206329   -2.98091887345658
H         2.35501496511635    5.82096621477585   -1.71283839369350
H         0.87744614826319    6.00048806846228    0.25622635098863
H        -0.50683597860527    4.09681139938899    0.93617588684415
H        -2.14532808295603    4.00993705038230   -1.01953320096448
H        -4.37049081519553    4.96023690780829   -0.65576247878387
H        -6.03241507983475    3.75952351818973    0.71721153383293
H        -5.45089373333909    1.57148055681348    1.71193482713903
H        -3.23085228341821    0.61257580091641    1.36171916108649
H        -4.34528041418493   -1.89058741161497   -0.21597689484282
H        -5.96318546517366   -2.91888168352401    1.29557197711091
H        -5.22120500914779   -3.99897816395247    3.38223721586594
H        -2.81636699082675   -4.04071613104307    3.96030987524462
H        -1.17623243205785   -2.98898551261242    2.45067694099897
H         0.90599991553077   -1.96592970532512   -1.84131866613247
H         1.63986120879865   -3.81946307748071   -3.26268030632964
H         0.48481509460662   -5.99893825964316   -3.15639368876892
H        -1.40616249584600   -6.31128610936878   -1.60299272319768
H        -2.15557143881161   -4.46374835727187   -0.17846409779124
H         1.11677360697980   -6.32809810310433    0.43402022260140

