68
CSD_code = ILEKIV | q = 0 | S = 0 | Stoichiometry = C33H33FeP | MND = 10
Fe        3.57235651558468   13.52639634786459    3.24735160778906
P         3.94714171191314   14.69347069115758    5.13312529314711
C         5.66241987169430   13.91788534444653    5.11561174722335
H         6.45598759437046   14.66302750600040    4.98117420080114
C         5.41502708295771   13.08375612656857    3.89038838509447
H         5.66130094255370   12.03474708357490    3.96556668162291
C         5.48226689428846   13.70236169556645    2.62007546147377
C         4.85770866486792   14.96821607453426    2.52317852631567
H         4.92609083203408   15.50417226517111    1.59109579231964
C         4.07968905655241   15.52028069839579    3.55935123413596
C         1.98304089754286   12.49302061510419    4.03957195936913
C         2.78160734762004   11.62676699869642    3.25678261362446
C         2.80772255850045   12.13016211541257    1.92675360912356
C         2.04546617404721   13.32282261113070    1.88853099350208
C         1.54575641128465   13.55731183170174    3.19427288162221
C         1.53057695474342   12.30306376973587    5.44638569295697
H         1.95509955700801   11.40305743602838    5.88006200105438
H         0.44449077017035   12.21333747704578    5.47519659218826
H         1.81064096271701   13.15422162198553    6.06480729681695
C         3.44005119970841   10.36028477033686    3.67927793773562
H         4.40872575982400   10.26525434848465    3.19401745811391
H         2.83562000272098    9.49959297401207    3.39060934211243
H         3.58965902684581   10.32885919312938    4.75379744111327
C         3.42656979065413   11.43041073029153    0.77191222187979
H         3.53878382109600   12.09856399696094   -0.07522299783144
H         2.80153531180424   10.59026858978509    0.46554808276002
H         4.40675464973083   11.04121318779739    1.03524308971350
C         1.81423383773999   14.15975876783046    0.68239615688423
H         1.46804186368536   15.14850213909057    0.96595097619029
H         1.06666720374334   13.70569274836541    0.03115481032574
H         2.73648089574620   14.26026668493412    0.11586526076782
C         0.67630543876555   14.67050523485000    3.65659390840151
H         1.03741096930256   15.04224930151996    4.61402757159981
H        -0.35134021152074   14.33178109767707    3.78974988844992
H         0.67965685100039   15.49399834797141    2.94968635423240
C         5.89075816473916   13.10747934627439    6.34077971564132
C         6.98889666075430   13.29773370028868    7.16853623967386
H         7.71288222959240   14.06501546182587    6.93143990895033
C         7.16102409906502   12.50919110653630    8.29320590583766
H         8.02008527292974   12.66361224507731    8.93034244578180
C         6.23898883542907   11.52459974265984    8.60384682393392
H         6.37691198671533   10.91072275190346    9.48188514086757
C         5.13583523357214   11.33375257000763    7.78675149401515
H         4.40908110918777   10.57143191882432    8.03006268117071
C         4.96577345010092   12.12191864343696    6.66633511898106
H         4.11328195637727   12.00453870351813    6.01550113353943
C         6.05837069114564   13.05621916119724    1.44665263731261
C         6.98602180248180   12.02366353155272    1.59941127519525
H         7.27480868217616   11.71162630014837    2.59155535298440
C         7.55503711372535   11.40666046907299    0.50193199153015
H         8.26725918864405   10.60699750550018    0.64658755457649
C         7.22570195743276   11.81621922976512   -0.77902318592621
H         7.67556298235427   11.33936954003531   -1.63697053982160
C         6.31656973272991   12.84712553437421   -0.94929598017184
H         6.05279181008779   13.17416406372600   -1.94508283094085
C         5.73828255730140   13.45416497969828    0.14758639919869
H         5.01331972839625   14.23780111011167   -0.00775582706469
C         3.20245136672844   16.65866621503104    3.30663873732589
C         2.88916401446827   17.10605114343902    2.02094971199837
H         3.30554752986190   16.61044217935410    1.15926115415424
C         2.03675877255580   18.17498610383501    1.82522578546047
H         1.80891257885128   18.49867242880701    0.81932419704909
C         1.46781176452509   18.82787358158873    2.90617965235292
H         0.79846804596383   19.66044385123724    2.74918939371790
C         1.77328313461981   18.40561132351305    4.18923850968467
H         1.34384209062289   18.91152528062028    5.04162960816712
C         2.63392861378576   17.34412470438731    4.38252217149506
H         2.88413963178259   17.03351514949313    5.38876755069964

