86
CSD_code = ILEKIU | q = 0 | S = 0 | Stoichiometry = C39H42NO2PPd | MND = 4
Pd       10.18798592492565    3.72678684775500    4.87530677614060
P         8.20957997844192    2.71180996045295    4.93122242069695
O        10.57116146326296    2.66385477069202    3.05435411059009
O        10.06957616942814    1.76344487596879    0.67904092316768
N        12.02849977831084    4.59599820154345    4.69112282615541
C         9.66968460788615    4.92960177691834    6.46716549838733
C        12.74353806208488    4.55598859605633    3.61322346698167
C        12.42468310863041    4.00418413168774    2.34332973826275
C        11.33736539492351    3.09825985306731    2.14011863769069
C        11.14576578209207    2.60331745398147    0.79484760650341
C        11.97488965732428    2.97581917610816   -0.22668683460584
C        13.05370884267121    3.84459428549324    0.01002898873298
C        13.27356117098058    4.33413507403638    1.26169061064457
C         9.78023289049465    1.23592785867897   -0.58551180056790
C        12.64003339748224    5.10820956053761    5.85540707972082
C        13.02898423696180    4.20250034827387    6.85821153881655
C        13.68667582794468    4.69690435343991    7.97370238481935
C        13.94196981735625    6.04996812761950    8.10771083964158
C        13.51843256971283    6.93355313814984    7.13534314886343
C        12.86038608454627    6.48299195364979    5.99892440032853
C        12.75316436158252    2.72102218336679    6.69324905079702
C        12.54287907030547    2.00121414791163    8.02631192537851
C        13.89575478734232    2.06521652257139    5.91011764986970
C        12.37120780810921    7.46756223095284    4.95961013526894
C        13.54720291887500    8.09376376154805    4.20624788810311
C        11.51068576722296    8.56062257247270    5.59846312702522
C         6.92767735802615    3.98517636670592    4.71045603914378
C         7.32488858289220    5.04796979061458    3.89821113451066
C         6.45140012066267    6.08511532631358    3.63436275092780
C         5.18123704423183    6.07419685285305    4.19222903250961
C         4.79130788196057    5.03034964818852    5.01409876338372
C         5.66008199029333    3.98322106182637    5.27532674976692
C         7.85360748155584    1.52480623221265    3.59996010046938
C         6.85102679352489    1.69415317420230    2.65525376288600
C         6.65371091469346    0.72734448297535    1.68422366291548
C         7.45727515341448   -0.39921496220815    1.64821748746884
C         8.47253247697926   -0.55976028094909    2.57879175333425
C         8.67040083917943    0.39881337981828    3.55128853463022
C         7.75409532821793    1.71468718919313    6.38357778237048
C         6.61983091940446    0.90910641566527    6.40849630189352
C         6.34228025413089    0.14728431172123    7.52893200768106
C         7.19930736366456    0.17193196401181    8.61830564711269
C         8.34426605125054    0.95132172728083    8.58526413119749
C         8.62281093125896    1.71970492392536    7.46913963331766
H         9.68597527952545    5.95869104610379    6.08450841265969
H        10.38199313640462    4.86699221910287    7.29499404728705
H         8.66720154765649    4.74678701919050    6.87102839208081
H        13.74342047860649    5.00297680227861    3.67058623433406
H        11.82133223658886    2.60676716494110   -1.22942020967008
H        13.70048046073208    4.11485326959122   -0.81068860125043
H        14.10040895624841    5.00676294900775    1.44544682668145
H         9.56111051622697    2.02573084024152   -1.31351931680406
H         8.89526186908674    0.61601721487098   -0.44956784931496
H        10.60261043611422    0.61776141055234   -0.96416775603647
H        14.01372497093203    4.02223831765809    8.74875208865331
H        14.46603076038112    6.41528122591472    8.97871186741108
H        13.70917955812193    7.98876039539607    7.25856658183046
H        11.81521261689681    2.59756764529526    6.09751752928516
H        13.48053106129521    1.88652755297875    8.56622899606731
H        12.13789830828982    1.00719075943222    7.84666046649148
H        11.84323153320450    2.55115455994793    8.65239418617549
H        13.98011329467431    2.49589353338104    4.91421957377681
H        13.71543952897235    0.99737136175457    5.80502818390820
H        14.84181789163537    2.20963932828104    6.43017306029622
H        11.74249472126419    6.93090144523693    4.23898691826433
H        14.19903383742827    8.62925702597764    4.89308815366566
H        13.18372864931757    8.79446147005696    3.45749640030840
H        14.13700868821538    7.33100763998357    3.70273350909395
H        10.71436478435126    8.11842433428424    6.19282576330671
H        11.06174083318311    9.17924663084636    4.82411045828871
H        12.10429960792039    9.20310048773019    6.24368206902088
H         8.33952694768169    5.04504285515432    3.48467848642911
H         6.75661719180857    6.90679564985765    3.00296892027386
H         4.49781819065514    6.88665460842206    3.99309245155931
H         3.80569851604464    5.03188458883927    5.45675718235213
H         5.35638284567393    3.17665579533995    5.92707560180649
H         6.22695307519648    2.57745907923199    2.67606873371926
H         5.87074620208818    0.85711086741133    0.95010357302787
H         7.29665150912963   -1.15237301378371    0.88926841788904
H         9.11022450633463   -1.43080572836148    2.53747406001619
H         9.46780358146707    0.29863681712672    4.27779531188479
H         5.96886363285397    0.86867580012296    5.54540297144871
H         5.45883252021933   -0.47434907546991    7.55177876789053
H         6.97843455862708   -0.42742068847030    9.48933077431147
H         9.02008715517144    0.95499437558790    9.42800705549557
H         9.51856703908578    2.33111505148767    7.41413429305438

