72
CSD_code = ILELIU | q = 1 | S = 0 | Stoichiometry = C25H42NO2PRh(1+) | MND = 4
Rh        2.02992056797749    7.54522354357206    8.39562749426744
O         0.17743028175719    5.74129287615837    6.88626087127741
O         2.41868792901138    9.06468048551010    5.83573248975069
C         0.91894272678131    6.42012216200719    7.44001662557034
C         2.24591733378664    8.62494642326182    6.87582105347823
C         1.98017380461125    6.13678883104606    9.96788982555614
C         1.28523947674182    6.67590682805158   11.15920460536955
C        -0.02343019195774    6.28530591651604   11.51050658283403
C        -0.64846446569659    6.81578439874880   12.64422650260873
C         0.07621808930431    7.65734303790435   13.46977166741409
H        -0.38466500101998    8.03129886183367   14.37102659351074
C         1.37246866790875    8.04950077574243   13.16651315521761
C         1.95522136622682    7.60872789530612   11.97894034202261
C        -2.07769477032718    6.51732324975924   13.00061543281377
H        -2.25771736627818    5.45590265404645   13.16609792685253
H        -2.74965509363438    6.86529765456631   12.21658386202572
H        -2.34230933740864    7.04138868159026   13.91440604858713
C         2.09185614467470    8.94223071026033   14.13526630526438
H         3.07310658365934    8.54172951030573   14.38474687431212
H         1.51945894597970    9.02957597105542   15.05480838315799
H         2.22222155190610    9.94651866730430   13.73270016266401
P         3.25638881936201    8.84529393439357    9.82938619993226
C         3.29270647639286    8.12584654129055   11.54777476422612
H         4.01363585664344    7.30369647065666   11.50186369023613
H         3.67594657481726    8.86903390672405   12.24346884505265
C         5.10247376923367    8.87591585466715    9.41662189321562
C         2.50333727719477   10.56345865322905   10.07075727940292
C         5.37202927776633    9.84007252830441    8.26294833634260
H         5.33012219550819   10.87401694525887    8.59546504374957
H         4.65922887884474    9.69155687480941    7.45323610353678
H         6.37050251619594    9.66528264036941    7.86452078932050
C         5.39414038358282    7.44912656414145    8.93062096209563
H         4.66714941478120    7.14707420178992    8.16054339097111
H         5.35389760066934    6.73094734817854    9.74819148450457
H         6.39056823730937    7.39486809162313    8.49612796463981
C         6.01576158100426    9.22555667902539   10.59017156423825
H         7.04466493532491    9.26970885353160   10.23610925054608
H         5.97388923031367    8.47945010468501   11.37939680679575
H         5.76924922788522   10.19510652293001   11.01374466410341
C         1.07595085085260   10.26444661092439   10.54730622032672
H         0.45587034662225   11.15433703386687   10.45659347804071
H         1.04842326649920    9.93935705796945   11.58199386290420
H         0.63103554829550    9.47482585838920    9.92289339405514
C         3.24142834942145   11.45880805665844   11.06045754021215
H         4.19131517966449   11.79360320716015   10.65024886536389
H         3.42692438654244   10.96335378395701   12.00996885467429
H         2.63910565022205   12.34347892359156   11.26216985814315
C         2.37853461188006   11.29467258781624    8.73280457253443
H         1.84530219831167   12.23157747113476    8.88823517257542
H         1.80285103040203   10.69969279930925    8.02445929220356
H         3.34036807350442   11.53378185484259    8.29273767482185
N        -0.27169459457520    3.89499886715422   10.84645797665038
C        -0.77129538630233    5.30005048684877   10.65310798737466
C        -0.26906330913870    3.48230242441878   12.27328168532251
H        -0.04836174924525    4.36878350844027   12.87205278557465
H        -1.26646177707805    3.11983493267201   12.52855748386624
C         0.78367622415803    2.42271571489699   12.55046515787074
H         0.61102376233285    1.50654058343855   11.99123637075523
H         0.76594716579939    2.17113992185831   13.60689002800085
H         1.77786730614797    2.79672150357285   12.31439544152417
C        -0.99273424158391    2.91862832818663    9.99096120772769
H        -2.06332093304874    3.11035459101235   10.09021371780891
H        -0.78704956868790    1.91760622709699   10.37368622950607
C        -0.57190768467280    2.98622813207472    8.53339923370132
H        -0.85042709223867    3.92555975380433    8.06624827799556
H        -1.06736702821101    2.19011685583964    7.98492737232742
H         0.50172319587368    2.84311737847123    8.42754601439801
H         3.03199317400254    5.94594166874340   10.21883952788382
H         1.57521354762335    5.16288957968620    9.66480267660399
H        -1.83272659545081    5.30487034267032   10.89393557897341
H        -0.64973287704072    5.55516856665318    9.59893358996769
H         0.71586947229035    3.92189353668273   10.54448103284171

