70
CSD_code = ILENEU | q = 0 | S = 0 | Stoichiometry = C21H44CoNOP2 | MND = 4
Co        2.38462150922565    6.65181178654244    4.12783839077355
P         0.49620874619840    5.88673606360115    4.90750844771857
O         3.07438115447253    4.21320699147870    2.75146417608359
N         1.99179454451861    8.18190876164436    5.06781708466100
C         0.74452830236198    8.44567777016712    5.75437371533088
H         0.08498528432811    9.08655168446650    5.13716485782074
H         0.94601221008924    9.02938996076979    6.67396653976143
C         0.02172792530528    7.16048820169768    6.14463372964780
H        -1.05761050610211    7.30209060451874    6.22833453139075
H         0.40713026083617    6.82845045083712    7.10959352263870
P         4.09513980914268    7.76311624524936    3.35724935817160
C         0.52292037654427    4.30869713676819    5.95922872579634
C         1.85761228285190    4.39911012376855    6.70729210476029
H         2.67752183379899    4.51095989138889    5.99588377585977
H         2.02716855029972    3.49815354551126    7.29581976748389
H         1.87966660454173    5.25363680297168    7.38076624312936
C        -0.61288351237384    4.17692302180708    6.97455338981802
H        -1.57556801604369    4.04527252729639    6.49150914414478
H        -0.67246989347353    5.03908130830073    7.63347523487862
H        -0.42988347778845    3.29893362347772    7.59452514295407
C         0.55357768869524    3.06686200327945    5.06955775311214
H        -0.41662281450650    2.87785239470802    4.61677658760306
H         0.81654642889049    2.19275419995755    5.66526792392037
H         1.29656579072946    3.17425788870597    4.28361304859047
C        -0.95139878940760    5.85655107812437    3.68559852291527
C        -0.53462432065186    5.03539470928580    2.46538923771727
H        -1.29181595515645    5.11361586783353    1.68549162064425
H        -0.40396769193891    3.98512321404182    2.70579298759750
H         0.40742328440904    5.41560279929916    2.07141462532624
C        -1.11498512537165    7.30988087739245    3.23293375330217
H        -0.13577557132931    7.73149226327122    2.99861727801100
H        -1.58541082546950    7.91804863404043    4.00165329849952
H        -1.73306390341318    7.35989900361106    2.33701456160776
C        -2.27372061975203    5.34295386397498    4.24561042278024
H        -3.07188068788671    5.55007208879101    3.53224843621252
H        -2.52710853355779    5.83492580330230    5.18272272607119
H        -2.24579856192565    4.26833889693010    4.40610094817061
C         2.70131496057632    9.43961965241743    4.96306684919280
H         2.76140313803400    9.91342123928897    5.96287706801783
H         2.13826869182172   10.15468461874459    4.33201591459894
C         4.11684298493414    9.25865435374078    4.42483233640111
H         4.77997859698493    9.04115488229385    5.26340589844724
H         4.48170157014793   10.15082715646860    3.91208135541319
C         5.84027335668307    7.06750447291367    3.61850705607099
C         5.74453969855259    6.34880118234935    4.96873271671094
H         4.97621190825827    5.57622613456270    4.92643427091378
H         5.48303818090740    7.03813733531765    5.76948795698459
H         6.69547254416274    5.88007817229875    5.21952710017457
C         6.95484886535062    8.11234182260607    3.68559322784733
H         7.08234633767592    8.63163884941284    2.74145629409610
H         7.89409231737523    7.60970136966841    3.91765788734543
H         6.77480028639046    8.84939524900496    4.46364690674629
C         6.17889963497987    6.03193019898896    2.54727341069115
H         6.39702741188999    6.50289147426739    1.59192553153648
H         5.35922102476594    5.32995828041904    2.41762775991843
H         7.06176857814305    5.46737475198278    2.84720953149591
C         3.90086253871505    8.44114869106214    1.59846752565007
C         2.66079359201287    9.33728278158025    1.65348631559419
H         2.30458737841927    9.55245165019239    0.64647387214340
H         2.87308953733308   10.28339811300416    2.14542408261796
H         1.86449938477709    8.82648880986359    2.19784501290096
C         5.08457960093068    9.24280055242598    1.06708673101809
H         5.93455180352295    8.60130996984372    0.84974049735798
H         5.39204195203114   10.01262424756078    1.77235987385526
H         4.79671365888453    9.73618646420628    0.13839554010840
C         3.58621644177287    7.27111623883253    0.66613251272749
H         3.32629975320846    7.64190204054721   -0.32514990594100
H         2.73892141994904    6.70835344875681    1.05775574815444
H         4.42759517537691    6.59313895875787    0.56371292207617
C         2.79995389437713    5.19303474785341    3.31820858410678

