90
CSD_code = ILEVOL | q = 0 | S = 0 | Stoichiometry = C27H59RhSi3 | MND = 9
H        13.14041166910575    8.77974864466205    3.07988658692871
H        10.48978591501981    8.63216690802438    3.21099280974499
C        15.99588007241148    6.34679319237036    3.88667604720244
H        15.52892766359792    6.68015150597794    2.96689531225919
H        16.02452540057708    5.26161430941521    3.87353795918676
H        17.02589008476824    6.69008207515758    3.86644531428711
C        11.22003411664015   13.11665064941483    2.30376559510490
H        10.38237364319860   13.37160139381479    2.94692530848700
H        11.04793215605829   13.57591730714552    1.33081693901993
H        12.11948169411154   13.55450040593592    2.72782386498072
C        17.02329562251847    5.82862090335334    7.10663160767546
H        17.45669480672595    6.81134797574005    7.27371090257697
H        17.47985095954003    5.40034012654873    6.21802098621717
H        17.27978222395230    5.19665554462379    7.95689566137455
C        14.55331182103235    7.65875014882973    0.50271241020216
H        14.25641494280207    8.30015842644197   -0.32180853760732
H        15.47203999980364    7.14563161622608    0.21935412523140
H        14.76537371203057    8.29566068136774    1.35909297157322
C         9.02287743343161    6.61599023464285    1.25455276900415
H         8.84859171424636    7.03919179393739    2.24080389161217
H         8.31081843291605    5.80620081330990    1.09683074577505
H         8.82444971561803    7.39173943007349    0.52043300395216
C        11.30771286824745    8.25581801965070   -1.33485138130660
H        12.22544850202160    7.74841706743195   -1.61917158577274
H        11.12758697152407    9.05466801493822   -2.05356996396074
H        10.48917323735244    7.54562163252516   -1.41190193927980
C        14.94730988858628    4.51007860179085    6.75988889469515
H        15.22065103660324    3.87938932086585    7.60611750602221
H        15.34064739384822    4.04766581972754    5.85811537180441
H        13.86240721626627    4.53316160672278    6.69366930589353
C        15.94932750012715    8.75566581218563    5.69607743237662
H        16.98459236221309    8.70778794359332    5.37181484132379
H        15.95832641987516    9.06654544474931    6.73623066451419
H        15.46846441747354    9.53643283277085    5.11786039826509
C        14.91421466299195    6.48548075761003    8.24204291923636
H        13.82917057508696    6.51988910872490    8.18372882726063
H        15.28341170774652    7.48852007221262    8.44031794552196
H        15.18709109452045    5.85491436728714    9.08851599158363
C         8.94003828873235   11.03684709156068    4.56911945220172
H         8.74580825609033   11.51402969352625    3.61271550208116
H         8.20568143081992   11.40031909458424    5.28766760739556
H         8.79570553684414    9.96668466457667    4.44226691619760
C        11.36060773223178   11.60457335204996    2.16142745732825
H        12.15656382795239   11.39295524268327    1.45068404070558
H        10.44707010905278   11.20858445428372    1.72234439732613
C        10.45575004736952    6.11713626455530    1.13129345738867
H        10.60472611549478    5.71548808996486    0.12837792414097
H        10.59587506392952    5.27774755198821    1.81088790655687
C        11.40943305351301    8.82304602317912    0.07737754053704
H        10.47829986975143    9.33264572804006    0.31710304486616
H        12.18607187222526    9.58464454663105    0.09299073871704
C        10.35777118660672   11.33455333274939    5.03660100786100
H        10.49181699473935   10.92649385080551    6.03744431438099
H        10.47681939169575   12.41385537965319    5.13769470183272
C        13.45097647317324    6.66107511141483    0.83366888491877
H        13.82240162365042    5.96229167862301    1.58105241111062
H        13.23533633516694    6.06828058656543   -0.05603777573150
C        15.50490131269821    5.92114557332386    6.94950592540724
C         9.86436359323644    5.55122424735898    4.72147242469713
H        10.00538285086791    4.88155860618777    3.87813621170006
H         8.93308954125827    6.09473390262031    4.57791227044403
H         9.76145435208256    4.94311783693634    5.62419162611895
C         9.81909522211826    8.03210575565693    6.58059206474586
H         9.73035815094309    7.34662339950762    7.42767426743833
H         8.89590078534808    7.97580718301436    6.00808400679473
H         9.92033930110520    9.04004826831752    6.97216261072632
C        12.82223085663327    4.88525447852542    3.98407938501048
H        12.63286063342656    4.07009907827554    4.68609433370811
H        13.88070569677478    4.90028733959310    3.75652996802172
H        12.27427239426300    4.66622407724155    3.07001380080338
C        13.21666188431062    7.18176437144463    5.21338354590365
C        12.74511247569077    8.99523137679372    7.06573867605448
H        12.17484482575633    9.92014471379245    7.01036926016980
H        13.79922745733368    9.23555882838976    7.00711044765983
H        12.54885672272595    8.54440658897120    8.04115332433672
C        11.02858827012783    6.47983981025908    4.89311175424291
C        12.38107666228043    6.17752060751646    4.59888004250160
C        11.00719383037760    7.63407808257570    5.75780227980958
C        12.34669616990729    8.03325456300722    5.98947901776425
Rh       11.86909924789303    8.26749024418867    3.73138157355282
Si       11.73932282704294   10.68376670630674    3.82511242294782
Si       15.10525375504599    7.05821586875257    5.42539249962177
Si       11.79840841540179    7.49686552176139    1.43719364939854
C        13.35875427438316   11.53838362208137    4.48900466258778
H        13.11226371291202   12.55447129782162    4.79926484910035
H        13.72352101343942   11.02954676506345    5.37944266266379
C        14.48185075487085   11.59833778439768    3.46188793808339
H        14.72630130508911   10.60145824108618    3.10065582770467
H        15.38111232280339   12.03878539875590    3.89198465784551
H        14.18796651823803   12.19822761324079    2.60564097966096

