52
CSD_code = ILEXII | q = 0 | S = 0 | Stoichiometry = C26H17N5O3Ru | MND = 6
Ru       -1.30617456855939    7.19048857617817   12.54692601804826
N        -2.97652267068418    6.20505729572417   12.24813124959585
C        -3.65143757819471    5.60196044697491   13.25009394112845
C        -4.84075849852244    4.93152992020190   12.98518574845224
H        -5.38278699305870    4.45115827372756   13.78248908530864
C        -5.31682571616569    4.89319799071371   11.68306883675075
H        -6.23840550964548    4.37864766149672   11.45964441925487
C        -4.61211658969276    5.51548527924830   10.66222673466359
H        -4.95127747915194    5.50591447810195    9.64061914870634
C        -3.43035070374953    6.16984022830331   10.99102976177765
N        -1.85269468249586    6.48638621123536   14.46573783911995
C        -2.97912356914738    5.75619953180726   14.54321893050590
C        -3.41432824501113    5.21658879370536   15.73952735173946
H        -4.31720321603754    4.63208282279861   15.79578652654050
C        -2.63573940126077    5.45153052217617   16.88110808673042
H        -2.95330484868278    5.03877138124945   17.82909394371238
C        -1.49063957801523    6.18701513979673   16.80251344094214
H        -0.87392445657304    6.37650886870922   17.66718602123138
C        -1.05424984229799    6.73976585991878   15.54673771751542
O        -2.67980859489638    6.80043747963648   10.08384027945079
O        -0.02929918776864    7.41128227290794   15.37603817450453
N        -0.01716295774899    5.68349188711916   12.34157342497330
C         1.28231426172799    6.07372366310669   12.47691280948539
C         2.32224136603837    5.14304903963458   12.43106273350964
H         3.34008950834200    5.47928256585842   12.54336212963381
C         2.04184180770888    3.80563321304356   12.25235869449642
H         2.83400065245965    3.07419350555253   12.21681422248508
C         0.70980614830843    3.41768637769437   12.12358822534500
H         0.44299612635634    2.38200800038103   11.98745622474033
C        -0.27248241578737    4.38286817048869   12.17387965260972
H        -1.31762143198997    4.10626576484489   12.07468953649408
N         0.27304568753074    8.14257282479853   12.76951810788287
C         1.45749215114539    7.49581880868909   12.69751382730150
C         2.65160265447341    8.18693417784800   12.86260765824807
H         3.59721137604718    7.67231614597855   12.80704799235233
C         2.61290896421467    9.55177364401889   13.10738770061479
H         3.53002048431031   10.10417628006554   13.23889249204221
C         1.39068015522624   10.20107709626167   13.19705175243642
H         1.35178151845893   11.25852095159732   13.40313331335032
C         0.22201736208267    9.46883243681299   13.02446080565745
N        -2.08948066492512    8.99073850215024   12.89828263742137
C        -1.14285854295018    9.94937028314258   13.11198619563238
C        -1.50437882645749   11.26583688460303   13.40556380105033
H        -0.73520846367911   12.00296577763399   13.56908944841036
C        -2.83558402805129   11.61252131135587   13.48797049976551
H        -3.13074981640586   12.62546562509668   13.71279931039328
C        -3.79364411761573   10.62287621462491   13.27727052487089
H        -4.84658140560688   10.84687100895725   13.33625945141230
C        -3.37560233380521    9.34191031729583   12.98906196841656
H        -4.10322409560679    8.55423423834510   12.81984791202795
C        -1.48034902186400    7.43622793192277   10.59423502496639
O        -0.81425017232827    7.99730831646474    9.77321866629192

