53
CSD_code = ILEXEE | q = 1 | S = 0 | Stoichiometry = C25H19ClN5O2Ru(1+) | MND = 6
Ru        1.83682472365910    5.27160946917117    4.12993941261126
Cl        2.74706985014649    4.69206499171031    6.26331221252331
N         0.99833436794964    5.84500215777967    2.36106923530080
C         0.77892111207285    7.17074368755925    2.20276515508002
C         0.08223926478290    7.66064462459622    1.09979818205888
H        -0.10393068926960    8.71457510866459    0.99430344595421
C        -0.37605825096277    6.78528370475331    0.13314877636824
H        -0.91944193839989    7.14662042551934   -0.72453603833424
C        -0.11599864840787    5.43372820658943    0.28075162004743
H        -0.43952829070781    4.71608937214183   -0.45717394531223
C         0.57314416317587    5.00981460711881    1.40962569186516
N         1.97583950970088    7.37233417599501    4.25607436100321
C         1.35108300595210    8.02660593781933    3.23994352199643
C         1.30080807785471    9.41205398089834    3.17148466548921
H         0.79994193080960    9.90612750042442    2.35824589152240
C         1.91589728723586   10.16787993859926    4.16201871679610
H         1.88657341815783   11.24486589713282    4.12621301222262
C         2.56539173394272    9.51421356177213    5.17842403449008
H         3.07262809239768   10.03176023577489    5.97493767077354
C         2.58139154488748    8.10585107854953    5.20544678250428
O         0.86458350038974    3.71181583355660    1.62293827903395
H         0.54454780305170    3.16253436674198    0.89418855631215
O         3.22908733071887    7.54588090911216    6.19387843442379
H         3.12938039075792    6.54756744116663    6.23794227141816
N         0.00654414230006    5.06495369832561    4.94937256437091
C        -0.35378386270488    3.76284534181673    5.07244599478541
C        -1.56786218401750    3.40300862434874    5.65386171224394
H        -1.83400341122428    2.36270283872202    5.74347061654290
C        -2.41973361193141    4.38603806402543    6.12229238193249
H        -3.35899836068844    4.12388921919814    6.58256381081413
C        -2.03689190993597    5.71461491381265    5.99446565613064
H        -2.66509445712012    6.51324647661351    6.35308782723833
C        -0.82038155331331    6.00275314907249    5.40317001119197
H        -0.48909475025318    7.02937123964223    5.29535040164520
N         1.70652816001458    3.39987497874492    4.04045027402228
C         0.63449040846635    2.80265582724568    4.57879874275370
C         0.57817314821603    1.41478064237577    4.67308166285970
H        -0.27546090904923    0.92353399800164    5.10931133196664
C         1.65789402975431    0.67095468409284    4.21968238204143
H         1.63694682476107   -0.40493522355501    4.28691758148426
C         2.77866620344491    1.31272957059303    3.71340490686232
H         3.63763082936196    0.74186801750310    3.40272906865323
C         2.77962481841754    2.70296483331697    3.64098927678366
N         3.63454110331212    4.89661735100340    3.32195931325678
C         3.87724124123578    3.56669201987103    3.20600903730712
C         5.09719327438379    3.09561103289728    2.72510717249843
H         5.27014427814756    2.03512503345938    2.64436813155306
C         6.08332494848747    3.99466953573478    2.36409272813664
H         7.03620031263293    3.64638578415471    1.99871754542698
C         5.82227682756164    5.35307921951980    2.48697707252909
H         6.56307892627319    6.08949716696393    2.22242502705202
C         4.58907399186646    5.75325057780914    2.96755978959346
H         4.35590225170494    6.80615417154351    3.08019803217605

