89
CSD_code = ILEZEE | q = 0 | S = 0 | Stoichiometry = C33H38BIrN6O10 | MND = 6
Ir        7.47939824126368    3.92686057394478    7.73397642142961
O         9.56966853683382    2.99035292833683   10.24642016599639
O        12.13491617180714    2.92296734053511    8.19861617140570
O        11.45633467281039    0.91141909926029    8.94997772746768
O         9.07970942578048    7.33812373202168    6.77807107943045
O         6.87428411885780    7.14364875940832    6.43798719366611
O        11.33534755681741    5.65922733151644    5.18261555559286
O         9.63871964295084    6.65785344013975    4.10516124785007
O        10.56611892064368    3.77248407297732    3.14901970865200
O        11.51786870041279    2.41867282640946    4.66001557100748
O         9.39822910818807    3.13674262457484    8.00879748755348
N         5.86813144093331    3.13823307825330   10.10919626351957
N         6.71772503981903    2.61174130303368    9.20404330016837
N         4.84422542071276    4.84988875780340    8.61953605496273
N         5.56789327530019    4.61866600563186    7.50904898583813
N         6.67205885466123    5.47625585509599   10.19090570266165
N         7.74032581151568    5.27144002181816    9.40303744473440
C         5.59810727073747    2.22819192340314   11.06086977190748
C         4.70299473399980    2.47650449372100   12.22050064063812
H         5.10870068169171    3.26341764509053   12.85369193891508
H         4.61354246030894    1.56683305520340   12.80795973346873
H         3.71269013220782    2.78348026839463   11.88903206148305
C         6.29343415773766    1.07644758986069   10.74639967550122
H         6.30887480575425    0.15695080615660   11.29471764527901
C         6.99483984135827    1.36172677254610    9.57285511653626
C         7.90284368009363    0.43159346467508    8.85366987554914
H         8.23534955387380    0.84865444645982    7.90928013114705
H         7.39738723694791   -0.51621220577157    8.67171667197024
H         8.78271556308555    0.23601508688542    9.46616741704828
C         3.63070861415644    5.31111200432017    8.27715344147225
C         2.56862666922503    5.66912402140293    9.25233602933637
H         2.30439018255346    4.81186520220358    9.86838418747375
H         1.68521255520398    6.00428573130141    8.71613879801969
H         2.90487317842470    6.46759823583113    9.91041198764399
C         3.57984763971066    5.37203719979667    6.89657937900491
H         2.75884546423611    5.70032583521359    6.29316560232529
C         4.82384885187054    4.93155866365922    6.44595403798805
C         5.27632812385002    4.85266827282158    5.03467229549207
H         5.65186705696048    5.82772349657349    4.72894894787420
H         4.44156155734498    4.58383818848491    4.39178620844987
H         6.07665368745799    4.12623391496394    4.92077437787616
C         6.96804117116715    6.39089416329793   11.13171367302467
C         6.00550591232661    6.86172537308497   12.16141994228731
H         5.10893750122093    7.26556164203780   11.69427817171169
H         6.47044584215202    7.63780529487869   12.76344636113671
H         5.70827746879346    6.04300275248693   12.81435945978319
C         8.27936887644716    6.77849836530091   10.93470612988344
H         8.83961757302148    7.48963041332511   11.50729664654057
C         8.73435249432036    6.03648620667333    9.83975547799737
C        10.10930666086120    6.03950134773711    9.27872110117868
H        10.75899654928848    5.45305202519873    9.92903709459489
H        10.49645494768206    7.05583295953248    9.23276643230389
H        10.13501566981145    5.59554790664117    8.28718800472785
C         9.95120698520766    2.82601201804904    9.10776671249358
C        11.28007482028425    2.08947559413572    8.77304198182404
C        13.31590374784644    2.36468357087610    7.62553403169655
H        14.11140716140263    3.09557794251901    7.75562662555271
H        13.13120812065663    2.18297019724344    6.56518914160308
H        13.56531655405583    1.42675313972257    8.12458277437416
C         8.23750739834020    5.17783844833444    6.41864111932424
C         7.96534981494598    6.63436608845037    6.52631543926957
C         8.91021622493744    8.74127547811645    6.90694152812083
H         8.70064313912989    9.18068520829767    5.92937165834588
H         9.84420231455589    9.12821434658956    7.30728724671674
H         8.08009098954714    8.96067656622508    7.58150019272320
C         9.19951500150550    4.76125002785574    5.50917090420571
C        10.05598423955958    5.80420703016374    4.84094935848886
C        12.23859675919373    6.61705114753403    4.64713960171996
H        12.09865005609039    6.70892451775045    3.56791914344052
H        13.23772271936818    6.25849587501704    4.88150344088113
H        12.06545098430090    7.59075250706266    5.10944004141455
C         9.39549333815249    3.42723877370767    5.14766941134902
C        10.60899524947553    3.12789666531744    4.32093039518557
C        11.69384059897772    3.60623598818064    2.29850597731112
H        12.61370114045415    3.83200918323480    2.84149699017769
H        11.55202135170324    4.29555927787853    1.47023625589576
H        11.74362591613002    2.57808246663702    1.93396385047333
C         8.43884054239718    2.39264167132134    5.36566722198719
C         7.34135025816799    2.56779101224716    6.25410197989213
C         6.31976043884396    1.61529784921710    6.20437366105190
H         5.44872956670448    1.73995825276254    6.83240859999612
C         6.39448447508286    0.50192681935504    5.39177020593242
H         5.58905121548387   -0.21800120906130    5.38592789774541
C         7.52093554644427    0.28630239966802    4.59885746292864
H         7.59417166817517   -0.60421261962354    3.99307092128334
C         8.52502760056424    1.21889137409019    4.58190561515983
H         9.38630683665068    1.06849141049510    3.94885737080976
B         5.42243047952304    4.60622571613699   10.02722018804734
H         4.62036744093065    4.85156495031363   10.85273450304655

