163
CSD_code = ILIBUB | q = 1 | S = 0 | Stoichiometry = C78H78AgO4P2(1+) | MND = 2
Ag        7.71674263221965   -1.04406182377439    9.79060209771392
P         8.58308188239807    0.33612201174761   11.72026537847540
P         8.63015951655366   -0.94381504878941    7.46329467890573
O        13.30399996631179   -3.04495771045036   13.12744346368815
O        12.04397231562978   -5.16252630897134   10.95919865090908
O        13.43763180530121   -4.46580297452741    7.53458235175204
O        14.11049106505702   -2.30093200503083    9.96372011649260
C         9.19134543802147    2.02630755285162   11.44465676856068
C         8.87111161741982    3.09565995011233   12.27235265966766
H         8.24078329203480    2.94454713178930   13.13697154751116
C         9.36466882544144    4.35706625468735   11.98503375352243
H         9.11913626169650    5.18596117484197   12.63171333109330
C        10.16705915668773    4.55637227800496   10.87413305180148
H        10.55167187887837    5.54016628250676   10.65246991740680
C        10.47650543278296    3.49370495195590   10.03881885717938
H        11.09842504114281    3.65117788520691    9.17141580985560
C         9.98895926820295    2.23252030431051   10.31934510038991
H        10.22523854131566    1.39407147357405    9.67193070190072
C         7.69276718950974    0.44170934065396   13.30150970009310
C         8.36651779266720    0.49690032845315   14.51809150607437
H         9.44729603376978    0.46749654587965   14.53270009327837
C         7.64710808789584    0.58847310807283   15.69520847666655
H         8.16737437996974    0.63306600626023   16.64018297498524
C         6.26120153508872    0.62521838293978   15.66551220226732
H         5.70524632118633    0.69638206132261   16.58773576477389
C         5.58778448628835    0.56921166974120   14.45577940597315
H         4.50874653076094    0.59728982582719   14.43500018350261
C         6.30238981375071    0.47471598310981   13.27554551378148
H         5.79114841828978    0.43180586003846   12.31985124644143
C         9.02055567174241    0.67724129912291    6.73367227657250
C         8.56820750234541    1.82042454127316    7.38363039699001
H         7.98814914248829    1.71829036939776    8.29750502301860
C         8.86119979885293    3.07198225582572    6.87280821648745
H         8.51684928403725    3.95717083798417    7.38574954487383
C         9.60016207696816    3.18374890984401    5.70670721730765
H         9.83223359188724    4.15912251463564    5.30718500495724
C        10.03670870159069    2.04558317066563    5.04518685904261
H        10.60487497794278    2.13722633352332    4.13141760438849
C         9.74732075963966    0.79239822416952    5.55195042139561
H        10.08393213322071   -0.09592716715482    5.03681154891465
C         7.56387592889881   -1.70371170695077    6.19878985078517
C         8.05966958750082   -2.34249360787214    5.06781968342123
H         9.12688329176841   -2.42705718304764    4.91793842110369
C         7.18102670931064   -2.88741837019317    4.14907741411963
H         7.56442765379127   -3.38613651906919    3.27150166973424
C         5.81286237240339   -2.79739635678949    4.35116459418960
H         5.13346816954836   -3.22632947889724    3.63057673861607
C         5.31608655661329   -2.16276308263357    5.47847583440742
H         4.25073067933210   -2.09448621026589    5.63761580352763
C         6.18990087994237   -1.61959541151823    6.40054190386894
H         5.81626085299206   -1.12614150860532    7.29343904519687
C        10.08717066420543   -0.57991357178955   12.17736014756060
C         9.87762969097521   -1.90159920047846   12.54974717553191
H         8.86038081662798   -2.26218628921721   12.61479927543052
C        10.92281610651149   -2.76229266686934   12.83058131767755
C        12.23042362999900   -2.25674905022682   12.78970829994284
C        12.45627578910803   -0.93993189842897   12.36704586281167
C        11.38491115811646   -0.11401624509324   12.05851969674486
H        11.57999207810157    0.89628606467473   11.73014464218536
C        10.60665948877395   -4.22933758235014   13.03382203142199
H        11.52545479432222   -4.79446508380126   13.17665730535578
H         9.94679482529804   -4.36107641689659   13.89435301633867
C         9.92118849282474   -4.69799198027434   11.77278704145916
C         8.56095462583800   -4.52450649228928   11.61572413237028
H         7.96586692245418   -4.21948210236545   12.46460081054833
C         7.94151713112040   -4.75181337043786   10.38773875056881
C         8.72402030195180   -5.27109928626827    9.36375590260604
H         8.25782690209739   -5.49009651163620    8.41357863976215
C        10.10298340247347   -5.41915287247433    9.46440465633910
C        10.71814283858802   -5.12832268885550   10.69141753695208
C         6.60992744915471   -4.21627410595473   10.07238046640073
C         5.79078877078930   -4.77356661223575    9.09264804176475
H         6.05720101559036   -5.72200230897393    8.65106793255348
C         4.62579738612779   -4.14671591676056    8.69206684927819
H         4.01028748634310   -4.60938889691322    7.93452204471164
C         4.22831728865067   -2.93739085948873    9.24809555041618
C         5.02017133405115   -2.38718352800514   10.25351941001102
H         4.67991184096813   -1.49379750711718   10.76532643335334
C         6.19269120290099   -3.01192270461458   10.66250852732518
H         6.71520255190493   -2.62992964222818   11.53701969508517
C         2.96330320151285   -2.26095366029452    8.82188644965534
H         2.57501360965342   -2.70169490939170    7.90765554150271
H         3.12568287979511   -1.19630202053144    8.66096396786562
H         2.20425115790021   -2.36606167376571    9.59723918105467
C        10.83741893481547   -5.54609134559290    8.14623197755399
H        10.20090592121706   -6.06486268735128    7.42529860524012
H        11.78638039280051   -6.06652507014294    8.20928644292602
C        11.07523138116150   -4.12036886536765    7.69511550865979
C         9.99826998056330   -3.26193883633809    7.58267519592756
H         8.99109259617705   -3.63812222399104    7.69654269732234
C        10.16400387413020   -1.90330155012304    7.34920180625277
C        11.44676463311549   -1.38497368882440    7.26571538537987
H        11.60203789936627   -0.31941230972891    7.17190508850488
C        12.54848866010053   -2.22912243935185    7.31619297674316
C        12.36266654788187   -3.60568046652728    7.49749637273598
C        13.92813759592020   -1.61827100470124    7.29054988749728
H        14.66555789859096   -2.39134736535509    7.50149948575451
H        14.13240976389084   -1.17336040466204    6.31350084141521
C        13.99056968295817   -0.55957100540532    8.35989021352374
C        14.05735857312105   -0.95788940701650    9.70024333139279
C        13.99005923884256    0.00427598170582   10.71578408678618
C        13.90616640028936    1.34339748915166   10.36436442141656
H        13.83550892665479    2.08680284605730   11.14631820615700
C        13.87152091681364    1.75705431262960    9.03579401544018
C        13.89831597687418    0.78295821778248    8.04307341048526
H        13.87642551220190    1.08077262607827    7.00434955573383
C        13.76654287255085    3.17902426204900    8.68389305752123
C        14.44101474164583    4.15349905744510    9.41591708392416
H        15.07779867476126    3.85739322267602   10.23630866403077
C        14.32814458188350    5.48995055854026    9.08733107240516
H        14.86596828893897    6.22843396541160    9.66428189448004
C        13.53660254181942    5.90176602690601    8.02121034139573
C        12.86378248282798    4.93100016069370    7.28945331340785
H        12.24051843151233    5.22793791730693    6.45768179676433
C        12.97601847227739    3.59187619669994    7.61161402515202
H        12.42262622970484    2.86051441532033    7.03776417691823
C        13.43393823739704    7.35016334740426    7.65800948215526
H        13.49781373114598    7.97846053695006    8.54352515662065
H        12.50012889354885    7.55874740223704    7.14103027717872
H        14.25465008970458    7.62488426176292    6.99467284534537
C        13.85088832798628   -0.39894803771584   12.16547323059996
H        14.00033713667071    0.47860779405135   12.79935484292545
H        14.56990005371985   -1.16356914507524   12.44968466777034
C        13.42860077223978   -3.34461640179744   14.51111654967258
H        14.13917746653692   -4.17397924305109   14.55958872023484
H        12.46953907952129   -3.67540108583651   14.92808422234909
C        13.94721698908142   -2.15688569214700   15.32347366051741
H        13.25062271910084   -1.32154575871480   15.21266402108840
H        14.91365229805278   -1.84436241725198   14.92393788971905
C        14.09089106759928   -2.52036121891876   16.79501619974715
H        14.45932929448817   -1.66847882922851   17.36008085976039
H        14.79105783568773   -3.34291384937669   16.91884050314010
H        13.13207177975097   -2.82060970680727   17.21187483200695
C        12.89830119249583   -6.14738692604154   10.40276315746556
H        12.32186625379235   -7.02867308501388   10.09635937736514
H        13.42745936321026   -5.72642146206704    9.54020367417775
C        13.90950301915299   -6.54591723832675   11.47701476518688
H        13.37938269671371   -7.00722836429886   12.31320259144121
H        14.38797096612699   -5.63717088863808   11.84381472073471
C        14.94998820311440   -7.51073176009078   10.92592940881861
H        15.66673638384627   -7.77700197538162   11.69827974778441
H        15.48891285748705   -7.05933033027497   10.09645319069450
H        14.47614568388378   -8.42355790629789   10.57142048369553
C        14.02661864365949   -4.75193632140436    6.27191924368323
H        14.98486471100425   -5.22292763557069    6.50662954767603
H        14.21518556534427   -3.82654834649354    5.71390110771586
C        13.17186145930212   -5.69139543263958    5.42083613062683
H        12.19869318503493   -5.22495766461486    5.24554529677302
H        13.00604878070316   -6.62048101044956    5.96928978329538
C        13.84936666447657   -5.99208751332754    4.09082711162275
H        13.23339482440902   -6.66112060424902    3.49609572161361
H        14.81411677231532   -6.46672502136843    4.25221896620123
H        14.00815799137099   -5.07683378568706    3.52494191806070
C        15.28652511212315   -2.79773547981793   10.59249999056788
H        15.90632519545586   -1.97523578936218   10.96659633152522
H        14.95696225032978   -3.41468592549287   11.43382406021175
C        16.11245506036751   -3.64092172506876    9.61912674082881
H        16.50666700477855   -2.99646240813586    8.82906844304614
H        15.45247133279142   -4.37829075363614    9.16033694263187
C        17.26687391655810   -4.33122193350604   10.33298908865806
H        17.84302125143539   -4.93041629600259    9.63241264799144
H        16.89689477273883   -4.98306835854088   11.12047390159185
H        17.93269680451561   -3.59668935512343   10.78103629845560

