173
CSD_code = ILIBOV | q = 1 | S = 0 | Stoichiometry = C83H83NiO4P2(1+) | MND = 7
Ni        2.09830751229687   -0.87191316329913    3.01805909880543
P         3.70708957380918   -1.42509534664952    4.40756024781507
P         0.35481713169250   -1.79871961611019    3.93082105670550
O        -1.57062674177734    1.21649860715195    8.70322878115173
O         1.16455672478252    2.87379469577745    7.58689410704017
O         1.47043292521268    0.34591444938564    9.54860274366708
O         4.15660382781370    2.40668661219046    8.97173094568246
C         0.99054194753862    0.28567504478061    1.67874281933513
H        -0.06516196152988    0.51483718634415    1.65230227983944
C         2.00246463451513    1.10721335800278    2.19795164648994
H         1.86786227893457    2.05206348028223    2.69641673233019
C         3.22687354623528    0.47897460398284    1.89913030115781
H         4.20965007072517    0.89175227277986    2.07811778428214
C         2.97116514814623   -0.64613778559961    1.02269774880502
H         3.72747704905986   -1.19144569130599    0.48421864528393
C         1.60486281801080   -0.77299881753023    0.89559817926709
H         1.07080921457190   -1.43779316443135    0.23742243727707
C         5.36532996825687   -1.31839094628079    3.65531774755403
C         6.37531485216304   -0.52929956088450    4.19091323850556
H         6.18971758664682    0.05296302981290    5.08178423827056
C         7.61682426595210   -0.49160346466199    3.57817463965482
H         8.39963698209128    0.12376656347431    3.99533581820611
C         7.85739348684756   -1.23678570226141    2.43618618114206
H         8.82607051985651   -1.20139964555221    1.96195508547937
C         6.85220868197882   -2.02674030753254    1.89914272918139
H         7.03872637912665   -2.60909917490224    1.00915723503858
C         5.61026941263755   -2.06397598249270    2.50334853713831
H         4.81464645814872   -2.67091300027835    2.08830389618131
C         3.72051054486155   -3.08471177605781    5.16295108834353
C         2.71602716916807   -3.36383489057685    6.08844491132267
H         2.03647730413593   -2.57131864617690    6.36594993111571
C         2.60878404431154   -4.61898021517359    6.65117569236818
H         1.82741485754072   -4.82727598740933    7.36448270772891
C         3.50932646273067   -5.61260471283174    6.30041361713508
H         3.42257610899389   -6.59483533905975    6.73829591861763
C         4.52503280612657   -5.33510421486657    5.40245469435318
H         5.24007825807992   -6.10064764807011    5.14126431329360
C         4.63196884453995   -4.07874449260035    4.82874045185408
H         5.43095212028656   -3.87904817482062    4.13096435792193
C         0.49776787343663   -3.59976484768961    4.13400599800234
C        -0.42599862759575   -4.34762937693238    4.85377261439951
H        -1.24003323407394   -3.85511008277637    5.36527008974194
C        -0.30368332918949   -5.72525995540696    4.89431139243434
H        -1.01250716265909   -6.30955552264596    5.46138872829076
C         0.71397220505289   -6.35854134741001    4.19936486252017
H         0.80103657908122   -7.43349388189569    4.23490283855973
C         1.60844842321251   -5.61769580496501    3.44305018036784
H         2.38555163128336   -6.11411295057123    2.88221637951896
C         1.49754664760607   -4.24160456774800    3.41007299071413
H         2.18633160384483   -3.63388974647707    2.82305449370085
C        -1.18390900021705   -1.80487060365297    2.93519635493478
C        -2.33738200042049   -1.11301732129245    3.28191738027047
H        -2.36677751689818   -0.51950536653995    4.18359245715493
C        -3.45818668463204   -1.18969708663590    2.47136706129135
H        -4.35212931583213   -0.65055036127267    2.74707763314144
C        -3.43810606292405   -1.95153405136710    1.31605912464700
H        -4.31326279812612   -2.00387756525983    0.68700833277964
C        -2.29177334728007   -2.65127900951436    0.97127955428835
H        -2.27392641425046   -3.25339808288481    0.07540453887450
C        -1.17180707344715   -2.57896872425896    1.77586240200240
H        -0.27770957600207   -3.13014511725027    1.51549596181683
C         3.79713053857864   -0.30354554864954    5.83465316315770
C         3.63176726154604    1.05915375182344    5.61152733267726
H         3.39379703102643    1.41121380871405    4.61602723664240
C         3.77531791967035    1.97624211165458    6.63985128363559
C         4.03070588132499    1.51020337034306    7.93505389106660
C         4.13371281932668    0.13813528038376    8.18074649162938
C         4.05227556615577   -0.75268404294498    7.12159900884432
H         4.17341004020454   -1.80631660044175    7.32319195869763
C         3.60214595438124    3.44759035261022    6.35576718735541
H         3.60355434763546    3.98715486472478    7.30267647291196
H         4.42846749419728    3.80893057924749    5.73773520353226
C         2.29701452557691    3.65837630187795    5.63626588786259
C         2.24271880240592    4.12974908507559    4.33615364119057
H         3.15663666100137    4.42435212110642    3.83884365060118
C         1.03410825179488    4.21487738782150    3.64727630123864
C        -0.11477432599943    3.72660351629231    4.26446841191909
H        -1.04950499465704    3.73277446210985    3.72164705959157
C        -0.08828655758944    3.24977104275163    5.56431996530964
C         1.11421879768213    3.28093666647630    6.27843392223102
C        -1.28710516057704    2.56092656932885    6.16687285734943
H        -2.13198472929114    2.63266075315253    5.47600195889385
H        -1.57808435691191    3.00677689286806    7.11707402595590
C        -0.93303774813499    1.11082815370425    6.39223629578102
C        -0.43615574721609    0.36767533361936    5.33586231715036
H        -0.28545560809506    0.84664769662377    4.37497393541069
C        -0.14409687067563   -0.98710001828650    5.47623737644976
C        -0.24297322160379   -1.57258089555798    6.73007950581092
H         0.00359665000273   -2.61355812539485    6.87862636487400
C        -0.66228029026296   -0.82902114644747    7.82518097033519
C        -1.06023859922735    0.50057270860393    7.64504948045040
C        -0.64114581770960   -1.46055592222762    9.19442231530119
H        -1.32881468792333   -2.30910460215104    9.23159465443945
H        -0.95221266182130   -0.71422230486674    9.92523725547860
C         0.75828910301832   -1.92981535070591    9.51036146248547
C         1.05701293660010   -3.27491608594605    9.64419905118860
H         0.26180375904301   -4.00267750439988    9.55888713425115
C         2.35740730475825   -3.70904495269813    9.88992072971108
C         3.37653471331260   -2.76117654457404    9.89941702926723
H         4.39764369065388   -3.08506331957312   10.03993631453097
C         3.11368690129984   -1.41000108598531    9.75316977736654
C         1.78423584202377   -0.98573564600140    9.62587811782170
C         4.24682845736307   -0.42486924614314    9.57625049121281
H         5.19930454001795   -0.94680195767449    9.69889495543161
H         4.20193537746117    0.39065506038449   10.29667510568470
C         0.98825959968298    4.75522718793717    2.28054114198274
C         1.73471031091365    5.88252187127751    1.94264355563088
H         2.33226748852274    6.37063850348356    2.69880634937778
C         1.69158589478893    6.39903626413321    0.66395461762071
H         2.26819317943111    7.28060769702000    0.42337816351682
C         0.91157692017990    5.80495189345424   -0.32308335423606
C         0.17344695525877    4.67788147542953    0.01194215646151
H        -0.43707595821433    4.19714556757022   -0.73939160601058
C         0.20627732247335    4.16199762926726    1.29351428848837
H        -0.37022332344710    3.27725644762138    1.52443548204668
C         0.88016453859422    6.37616197643168   -1.70619312713251
H         0.17505229271679    5.83969725414239   -2.33572899341431
H         1.86793942782876    6.31655298931250   -2.16243509132015
H         0.59334315542864    7.42616813196613   -1.67644618650749
C         2.65172538983243   -5.13294263946687   10.10261692777504
C         1.77222838081310   -5.93845825838709   10.82432026796691
H         0.87668121344068   -5.50543193133163   11.24544507621275
C         2.04795805176473   -7.27411792394360   11.03636231554303
H         1.35766259634442   -7.87853534550338   11.60714755340124
C         3.20673095616188   -7.85514414598757   10.53237910224260
C         4.08225900061444   -7.05369491082088    9.81128890616613
H         4.98918581734285   -7.48311308658729    9.40915148409093
C         3.81413979751765   -5.71437836437560    9.60210384313847
H         4.50533094830736   -5.11867113642206    9.02334393239525
C         3.50276890643533   -9.30051540201776   10.78461870384436
H         4.30454024670347   -9.65441862826116   10.14148180366544
H         2.61775542553649   -9.91104611880858   10.61558942648710
H         3.80920010837267   -9.44196672418540   11.82107359959353
C         0.56944804324815    3.76663445851304    8.51871209536831
H         0.14882644287332    3.13617910366724    9.30448356411177
H        -0.23900161574834    4.34204118593095    8.05149781122283
C         1.58763207027335    4.74659164271087    9.10604797811490
H         1.95595996426708    5.39856602146940    8.30932225430991
H         2.43066806189969    4.17641033900419    9.50016782369883
C         0.96261470809702    5.59509115449746   10.20520993037062
H         1.69956873353636    6.27280411786156   10.62869498885250
H         0.57554132314001    4.96521775929007   11.00288281506787
H         0.14019730238409    6.18817051754541    9.81080682119088
C        -2.98227480502440    1.10617563609750    8.84321846703783
H        -3.26465796029717    0.05518434811703    9.00229140016036
H        -3.47909069786422    1.45310141755031    7.92506061571163
C        -3.41708614128621    1.95772920709194   10.02954822513468
H        -2.93272604499608    1.58005006310265   10.93134812584930
H        -3.07259356805970    2.98093892555901    9.86967103071083
C        -4.92930641538844    1.93527737387995   10.20391078171832
H        -5.21740224533083    2.54391677802229   11.05633915267205
H        -5.28101377812732    0.92000693762023   10.37219144667762
H        -5.42467762141767    2.32772664854242    9.31879252459010
C         1.65705411358441    1.08658930676408   10.74744739617801
H         1.99002297289071    2.07885097892604   10.43652533173276
H         2.43010271666023    0.63034801504175   11.37638100475867
C         0.36482507259996    1.18496044414142   11.56128084314073
H         0.08219548542489    0.18539521385778   11.90278260161937
H        -0.42602675215027    1.56129383086957   10.91053932528129
C         0.54105692916625    2.10062345636341   12.76507424676225
H        -0.38934128242702    2.18212474705699   13.32143855226065
H         0.84138307850188    3.09674176608473   12.44828850250936
H         1.30586053598816    1.71159466283768   13.43387186746272
C         5.49898168815588    2.77666996959963    9.26231357694293
H         5.94850489210915    3.27237492356308    8.38917696697263
H         6.09803068696236    1.88271204902287    9.48822232517032
C         5.48596688534040    3.72070284815129   10.45827709718277
H         4.89411898373900    4.60157016555524   10.20422643385625
H         4.99442878120599    3.21907475649288   11.29370411755547
C         6.89583656334178    4.13726961982174   10.85336074543959
H         6.86289012856665    4.81298931208263   11.70335128890606
H         7.39070123659328    4.64588407855382   10.02923228632461
H         7.49071145945166    3.26906791347818   11.12754579080800

