50
CSD_code = ILIHUG | q = 0 | S = 0 | Stoichiometry = C16H26Cl2N4OZn | MND = 4
Zn        3.73605276981792    6.71847826871410    9.89662243559420
Cl        4.65328570669434    4.76619586398964    9.28534897719551
N         2.07145613983013    7.12477030264456   11.22244696001715
C         1.47835829029439    8.23677739298372   10.48803363045135
H         2.17273190997546    9.08182954434815   10.55219443246980
H         0.51688138827383    8.53775437300314   10.92546324705527
Cl        4.91824968836046    8.54983705126632   10.17604397531660
N         2.22444415659765    7.12607710514370    8.47302970508490
C         1.30358239772569    7.91607939640328    9.02937309130733
C         0.26285519026640    8.45661273030223    8.29818518678194
H        -0.46554018194001    9.09112832128744    8.77658459040324
C         0.18920122392651    8.17210233201183    6.93930042535505
H        -0.60645960421168    8.58616719312176    6.33938012314076
C         1.13265316216247    7.35250776508070    6.36367039439315
H         1.10966026245510    7.10811960199389    5.31577035095827
C         2.15578672910450    6.82669319726202    7.16691139208578
N         3.12680898254703    5.98697120048840    6.69385058657708
H         3.74428523266202    5.59498521247524    7.40610026081824
O         2.69223314083089    6.02036880074284    4.45886281652662
C         3.37340394917677    5.63589651083310    5.37966128434212
C         4.58255417201269    4.72168344768278    5.20299655848253
C         4.77383931496103    4.47816779283039    3.70372252383318
H         4.95660638124077    5.41731117445798    3.18774380944930
H         3.88178022853846    4.02770574603355    3.27628891830219
H         5.61809937456447    3.81474226855508    3.53608617584191
C         4.31614448919164    3.38790256527827    5.91136892828496
H         3.38125878453428    2.95227706163981    5.56448043225956
H         4.27216713952782    3.50672438525670    6.99046436745833
H         5.12176535078041    2.69402863615582    5.68340842562033
C         5.83526393319134    5.39417843343283    5.77679195144821
H         5.95044442122268    6.39855092560116    5.37419012368601
H         6.71241463917850    4.81338777558376    5.50132021274251
H         5.80441850932462    5.45192278143487    6.86119409732911
C         2.52663366241213    7.54087168599708   12.54883801427970
H         1.67321327854010    7.86464546873513   13.15927467519432
H         3.23121235010150    8.36675641798502   12.43772043066672
C         3.22205344668856    6.36766088116423   13.22388570778734
H         4.10545427057667    6.08512128675502   12.61170035358327
H         3.57463442703568    6.66964936830642   14.21196950315504
N         2.29821248092286    5.26405886512287   13.37379935897617
C         2.88643281032815    4.15786153133546   14.09812920185858
H         3.20257350028572    4.50501404762072   15.08019623908497
H         3.75494996292717    3.72821688627529   13.57795053621668
H         2.13625562369285    3.37961848930884   14.22750228738608
C         1.80322390394269    4.85648694009172   12.07476825714151
H         1.08674134573672    4.04373134042769   12.21190298128464
H         2.61891358559864    4.49250951292811   11.42210470501926
C         1.11563487714989    6.03104894417004   11.39222371767968
H         0.74408561620457    5.72241369966849   10.41307291374071
H         0.26938758503934    6.36609947606652   12.00837072633647

