87
CSD_code = ILIJUJ | q = 0 | S = 0 | Stoichiometry = C22H54MoN3O3PSSi2 | MND = 5
Mo        6.13123897520508    4.64560250638801   13.12497126275948
S         7.32713496934405    4.66640799809179   10.77539407502385
P         7.79950978741533    6.47847978437255   11.47778068394056
Si       10.07301500498049    7.68214849874070   10.11294568001565
Si       10.34380818584701    5.37865645894844   12.19655415286440
O         6.19915577921547    4.69662592593021   14.95124672111903
O         6.14184845713692    2.85897833797120   12.88842335262382
O         7.35158460077280    7.62798535491072   10.45573164650580
N         4.54834050432429    5.10291727649866   12.65124503353441
N         7.14213428176136    6.53318395483217   12.94856078229645
N         9.44473542418537    6.71589214998366   11.45810582511719
C         5.46772105106706    4.39109043256331   16.09922319254387
C         5.55256655469700    2.86513740194041   16.28565562389280
H         5.14954167621432    2.39204108739621   15.38947320660350
H         4.98810274903392    2.54355285879388   17.15738773977762
H         6.59366140250166    2.56424021480855   16.40429525650696
C         6.08252965510053    5.09338977385294   17.32421466312744
H         7.11643184726929    4.77969307512754   17.46076703425724
H         5.51804935472692    4.83646392572233   18.21678514605323
H         6.05818460125624    6.17312823310691   17.19243520281001
C         3.99870671105052    4.81080672765024   15.92356729338099
H         3.86867717935525    5.86949227145414   16.13688798865776
H         3.35121719703614    4.23956247825206   16.58304605408115
H         3.72176345173449    4.63230038174666   14.88174825687053
C         5.41199349278540    1.79276268581418   12.36294759460396
C         3.93475401194319    1.93982231746238   12.75558516901944
H         3.77924677437526    1.67967700839691   13.80121704219099
H         3.30676495812314    1.30496007579819   12.13744904924930
H         3.66404977622840    2.98720355795243   12.60587960278968
C         5.99843312920487    0.47355965628963   12.89793764624228
H         7.02885181694854    0.36320134019761   12.56473864285456
H         5.41682184779862   -0.37038500922744   12.53702955815517
H         5.98467400071152    0.47341340073436   13.98679312448656
C         5.52764749109922    1.83310533394935   10.83028992615994
H         5.07304686179152    2.75565783600436   10.46997454184018
H         5.02415519796474    0.97813277183414   10.38680540709702
H         6.57588697462098    1.82829560366068   10.53294608555864
C         7.27447746773328    7.65270968308040   13.88877074879109
C         5.89815384185416    7.93157724897746   14.50593053109837
H         5.47383914386125    6.99784548830618   14.87211140431616
H         5.21775924907571    8.33014489260268   13.75826525405971
H         5.98653511433811    8.64675046761235   15.32216725735344
C         7.79627008564794    8.92153596909371   13.21326485833640
H         7.90611538795062    9.71328704084831   13.95271869045614
H         7.10504635045539    9.25924117313357   12.44605366794997
H         8.76176517999964    8.72667823674096   12.75388295031707
C         8.25925303781166    7.26842677732144   15.00458309892762
H         7.91671471907818    6.36380152788626   15.50426731963540
H         8.32142184314786    8.06749835446709   15.74144440327890
H         9.25147030597818    7.09930746162224   14.58872316217202
C         9.68369616299442    9.54392966400115   10.28695607442880
H        10.00916278692030   10.05201073004003    9.38410468217679
H        10.23380944916492    9.98326069075333   11.11488723802869
H         8.63453011899336    9.76045766113321   10.43041735832256
C        11.97896299831884    7.67093780468259   10.17733421595998
H        12.36470019944378    8.14445536537893   11.07167784613998
H        12.33912754515538    8.24464124772812    9.33060477330048
H        12.41828660526833    6.68451089375282   10.11247534054159
C         9.53063911370300    6.87741405019968    8.47069146171893
H        10.38507087116401    6.53316072188092    7.89491427496422
H         8.97827674617472    7.57110418770707    7.84429535090337
H         8.89156341549504    6.02020929494121    8.66738017518315
C        10.93794178670348    4.20916865675267   10.80600788094791
H        10.08770583606851    3.74391527867393   10.31203918094497
H        11.56050685329772    3.41839993748840   11.21376778325683
H        11.51316879854315    4.72230933365543   10.04366323021411
C         9.44390279106462    4.22519164514839   13.42047940285373
H         8.80799133315511    4.75172691592327   14.12587802837912
H        10.17646424899559    3.66904010825972   14.00187464567327
H         8.83672201493166    3.49146914455998   12.89105918678356
C        11.75396750274407    6.21481051397548   13.17811340214507
H        12.69429529177247    6.07586323891598   12.66024263578313
H        11.86284243964441    5.76604641595617   14.15971268602590
H        11.60615531127340    7.28088034044792   13.31159896821210
C         6.06375174121766    7.85936822141910    9.83002001511730
C         6.19672275206137    9.23577770788426    9.17054858687326
H         6.36815224454422   10.00557337226242    9.91939513404416
H         5.28141635228086    9.47303693597649    8.63575568263744
H         7.02829015042303    9.23814608096542    8.47098167814315
C         4.93424774813719    7.86970745826640   10.85276434211729
H         4.89556674783821    6.92801538324909   11.41076027300737
H         3.98523810490956    7.99995628095240   10.33882334685812
H         5.05999890506835    8.69172887188636   11.55386763441657
C         5.78720905888041    6.80188827571043    8.76404631442491
H         6.63657123620615    6.70474440476399    8.09379103136613
H         4.91303557686665    7.09190325518981    8.18699794025174
H         5.59310169922341    5.83865189961413    9.22914958645501

