36
CSD_code = ILIJAO | q = 0 | S = 0 | Stoichiometry = C11H18Cl2N4Zn | MND = 4
Zn        3.30533680643221   10.87503499871307    1.62668730897701
N         4.12634548632314   12.57106585679869    2.74681104532313
C         5.36797988847622   11.95902403299831    3.20664416207316
H         5.10238938310772   11.18239311927134    3.93190003546231
H         6.02060668496252   12.69315887082611    3.69829063216109
Cl        2.19219378419638   10.75048106794240   -0.32664070622494
Cl        2.91289291410719    9.51713346900549    3.31852278938144
C         6.10142062292744   11.28572101482021    2.07946060086417
N         5.33957029662469   10.74503287241411    1.12431018451031
C         7.47756934387934   11.20415387397189    2.05494634111690
H         8.06501474716734   11.64998090718476    2.84045267100155
C         8.08617615654259   10.52272355534407    0.99986015631842
H         9.16131554767884   10.43431987584169    0.96320418506387
C         7.30963394637699    9.97905239386732    0.01021889796780
H         7.74386620449306    9.45251759683951   -0.82459504400948
C         5.90581185593819   10.11145732499182    0.08555918773670
N         5.09936629411621    9.60882774643774   -0.85541659724466
C         3.26156175565614   12.94687970512034    3.86305332699464
H         3.74012559489502   13.72583283682168    4.47193583297325
H         3.07524161804897   12.06479106184083    4.47763707220513
C         1.94266987755681   13.46694245232937    3.31030711010516
H         1.45798551789605   12.64715540708029    2.73769757159975
H         1.28276841357735   13.74468632907878    4.13455726344670
N         2.17427386779887   14.63263529312383    2.48464997347750
C         0.93733970871519   15.21094753895101    2.00527220423777
H         0.31470403493351   15.47486861219367    2.85830434307063
H         0.37546746041981   14.52352648000219    1.35610444432181
H         1.16289375850365   16.11611272738979    1.44378631903384
C         3.06787884998568   14.29713746182035    1.39493343686448
H         3.25428600966532   15.19814069713641    0.80630272940255
H         2.62959355058987   13.53048188081630    0.72784961621305
C         4.38369226644379   13.76650354602224    1.94719735047799
H         5.05137544984360   13.51023411726318    1.12242995596643
H         4.85957310261572   14.53952728950118    2.56753321016284
H         5.48766361182133    9.18036757034863   -1.67582428068716
H         4.10621558768700    9.82735041589526   -0.83394333034110

