85
CSD_code = ILIPOJ | q = 0 | S = 0 | Stoichiometry = C43H37NOP2Pt | MND = 4
Pt       -1.17864262232034    3.86949250451492    3.53606014514719
P         0.03958494499532    5.74877232482753    4.08908513527500
P         1.18793409917040    4.75862938211894    6.57243137138677
O         3.61285609993296    0.36360513125387    5.31382822523375
N        -2.94093151906409    4.89475359467086    2.86396871042179
C         0.35994313572213    2.70614854601277    4.09588958016881
C         1.46111126205716    2.55404068832183    3.25883673829719
H         1.47364963489851    3.04785722861670    2.28997848305793
C         2.55736296630535    1.77862594394686    3.61347878972067
H         3.38162966312720    1.68590882547899    2.92086575213953
C         2.58148262628803    1.14162117563394    4.84594591391353
C         1.49171408120002    1.28286700707792    5.70114218277446
H         1.52317572185973    0.78013250615015    6.65589924650284
C         0.40378811833211    2.04840479781457    5.32869955816267
H        -0.44195079411779    2.11317904746630    6.00382859703464
C         0.48416723633526    6.79335160053062    2.66097439955820
C         1.25745464557971    7.94845156801045    2.69193666344806
H         1.65468478426998    8.32035223319810    3.62589331908465
C         1.53530109291832    8.62589838014518    1.51807325427044
H         2.13177594463119    9.52646160418647    1.54689815650658
C         1.05841486845667    8.15257249128695    0.30631855215457
H         1.27861710973445    8.68870101568038   -0.60498173527183
C         0.31368206577257    6.98503900756926    0.26304479047864
H        -0.04210962640691    6.60351554827508   -0.68268537557137
C         0.03288338887537    6.30922199050908    1.43496446554161
H        -0.53407178109222    5.37857549756701    1.42043171330148
C        -0.92757261695775    6.75746772883714    5.25832330587081
C        -0.76176350571106    8.10741487778003    5.53389309599095
H        -0.00508221297621    8.68379916958516    5.02289503276882
C        -1.57908792494161    8.72392765779002    6.46487454093705
H        -1.44485082997487    9.77350713536091    6.68308777821119
C        -2.56616624794901    8.00324680530281    7.11585460706728
H        -3.20172120647997    8.49389171974771    7.83831210817592
C        -2.74080360248443    6.65655948443794    6.83928753094901
H        -3.51280224764728    6.09500755636132    7.34514261925557
C        -1.92235912117669    6.03633081852823    5.91549862507724
H        -2.03949288445599    4.97560880658432    5.67970943103771
C         1.64257791391747    5.62442807405656    4.98473587698872
H         2.11809274377032    6.59459982762878    5.14287984801868
H         2.27756906093234    4.97635255167840    4.37696823024133
C         2.80306301672931    4.08245756596737    7.11422212591681
C         3.86888056979673    3.77781665614129    6.27794818412122
H         3.81734945298976    3.98464722962434    5.21951213203143
C         5.01301343002579    3.19250966895364    6.79144504063454
H         5.84060234245900    2.96832245137213    6.13320817763886
C         5.10293920419943    2.88975007552354    8.13807765499569
H         5.99634300061700    2.42787465655411    8.53194356943403
C         4.03794951646212    3.17428069730751    8.97723163264283
H         4.09726974067018    2.93352233943976   10.02899984269212
C         2.89706810285244    3.76083310077580    8.46704560623878
H         2.06099611067401    3.98098409565517    9.11837776402753
C         1.18248074937824    6.22650539620927    7.68870742809279
C         0.09661973118518    6.38938076714186    8.53905685645538
H        -0.69799635296833    5.65694416741341    8.52151648172689
C         0.02782527926039    7.47442660095022    9.39427710623665
H        -0.82552403876186    7.59504240591449   10.04580171549152
C         1.05371344906489    8.40260761760496    9.41394320501859
H         1.00285523291924    9.25400005826329   10.07697665332779
C         2.15616452764049    8.23028114727252    8.59191780989762
H         2.96841057493590    8.94285548330568    8.62323354488714
C         2.22429681896843    7.14623502186026    7.73739145270596
H         3.10054947334920    7.00529613000929    7.11813254185244
C        -2.32257866519443    2.28130080523494    3.05903938644202
C        -2.01328852026879    0.92022966714758    3.10252809868609
H        -1.03636363500640    0.60544385963540    3.44328317929867
C        -2.92280998070489   -0.05053842530588    2.71942998848929
H        -2.64741960632049   -1.09526715811466    2.76558090327267
C        -4.18518307767906    0.30951306757579    2.27393944828162
H        -4.89464988462591   -0.44741631839428    1.97048438967864
C        -4.53180141521422    1.64269743505962    2.21772470806922
H        -5.51655470572065    1.90996526822664    1.86177220881365
C        -3.61958495824338    2.62739452588717    2.60569170246680
C        -3.94394622385447    4.05074857436507    2.54730672033984
C        -3.14467594959857    6.20372629469922    2.80423015454039
H        -2.30336597707361    6.84177978668711    3.05008796537033
C        -4.35280621085087    6.76964205830286    2.44535215507324
H        -4.46361079316429    7.84163999646905    2.41292262319722
C        -5.40569036872240    5.91992593137403    2.13558564081287
H        -6.37125557552968    6.31678749871595    1.85798147918298
C        -5.19648065390842    4.55743861779926    2.18418444519308
H        -6.00350132427467    3.88463257016230    1.94504956659000
C         4.71832836436320    0.15785514913772    4.47650535306501
H         5.22362441206803    1.09910909399704    4.23189843038137
H         4.43398592898986   -0.34849732563268    3.54692992672037
H         5.40181442265009   -0.47920616101253    5.03675573656991

