41
CSD_code = ILISOM | q = 0 | S = 0 | Stoichiometry = C15H20Cl2N2PdS | MND = 4
Pd       -1.09082916882783    0.40748455316154    4.39058759635845
S        -2.74107929532273   -0.89458621525754    3.19147830547317
Cl        0.38189539074020   -1.23489784254513    3.90972263631404
Cl        0.39165708309607    1.40680502501347    5.73503783205466
N        -3.73479972843768    1.62655787730237    4.92290211497882
N        -2.34157366356363    3.17356471038156    4.38557493456202
C        -2.43043604169827    1.86439115079567    4.67188304656316
C        -3.57926698235420    3.75179663383161    4.45281167982910
H        -3.73826150796303    4.79395599867154    4.26643792865405
C        -4.46235968597609    2.78063642229865    4.78802834392809
H        -5.51991752324964    2.81946149459364    4.95014903714423
C        -4.23177422147121    0.31275044929742    5.23464633351859
H        -5.20199148952190    0.40075177645209    5.73187765428690
H        -3.51471608386744   -0.16931952475361    5.92067054630737
C        -4.36417116029630   -0.55185843956747    3.97848208897753
H        -5.03135657546921   -0.10812181216522    3.24241383945595
H        -4.74480081511558   -1.53572823502134    4.25264805191272
C        -2.52790312939749    0.32649561150249    1.90296948966418
C        -3.44766130549806    1.30285352366191    1.55179658090401
H        -4.37505576966002    1.43256255429688    2.08902008600905
C        -3.17365593085655    2.14572908580752    0.48510148770821
H        -3.89332638988030    2.90604895926472    0.21923609928146
C        -2.00027138446323    2.01483176426667   -0.23479524546631
H        -1.80156013635152    2.67146699648298   -1.06800020580401
C        -1.08134014558879    1.03729303285468    0.11984288887142
H        -0.16179252377888    0.92888777621079   -0.43371968891149
C        -1.33836749691118    0.19450176400468    1.18304534031844
H        -0.62993479130285   -0.57436997064157    1.46692455393706
C        -1.10344451842938    3.85946381909515    4.08969180047237
H        -0.42265382208596    3.70902876595404    4.93462088092923
H        -1.32071344994778    4.92364052557134    3.97341967084309
C        -0.43730874913133    3.30168509880153    2.82977636873099
H        -1.09599794647077    3.43439934916548    1.96767710302950
H        -0.25953551116585    2.21611598975357    2.97810885330156
C         0.91095901096926    3.96488261846640    2.56773711687805
H         0.76844303240137    5.02953057948526    2.36618564382985
H         1.52833737966690    3.86663315918186    3.46141992169509
C         1.62003682923092    3.30476533321051    1.39283966024582
H         1.77816488621726    2.24962193015425    1.60330616548444
H         2.58638729749350    3.77053292342112    1.21868211126783
H         1.02497603424074    3.39235478753905    0.48596134646204

