85
CSD_code = ILIVAB | q = 0 | S = 0 | Stoichiometry = C40H32N6O4S2Zn | MND = 4
Zn        7.61167049878712    8.21699242128234    4.01640037233928
S         9.54688274874012    6.61750523118944    5.02921828258725
O         8.25226073892708    6.77009152659446    5.67903244348524
O        10.68986546480389    6.81797921684551    5.88214542398152
N         7.84588309866247    9.43987875139987    2.45566909767763
N         8.28545190869307    9.59152165211191    0.29201174890922
H         8.75247117599913    9.44000828658200   -0.58572400664626
N         9.43580580443719    7.63981909605154    3.79844136507830
C         8.74269324974951    9.18900696043741    1.51416202392758
C         7.01958080077832   10.09275124353406    0.45172598909118
C         6.09056785831125   10.61152547876469   -0.43536260820692
H         6.29476669234132   10.68091357245755   -1.49310425157966
C         4.88541451937126   11.02644720536912    0.09732512326499
H         4.12950241100610   11.43053574270904   -0.55917726983398
C         4.61745123222676   10.93168101947315    1.46446895532138
H         3.65771415473992   11.26439165114078    1.82986133683005
C         5.54174940779175   10.42109346566482    2.35266533599884
H         5.34207680147199   10.33786898333751    3.40887238568170
C         6.75660153594799    9.99381855683935    1.83210235826833
C        10.04185103318047    8.57573573028290    1.67962726187124
C        10.34485887567597    7.77001354034758    2.80960040425546
C        11.58674606331851    7.11405337175155    2.85113166045505
H        11.80380884312928    6.50377788859765    3.71419210060783
C        12.51313522740793    7.27409672084724    1.84847218944185
H        13.46596295617007    6.76936464269681    1.91248409601512
C        12.23364661810435    8.09209133771796    0.75812943430356
H        12.96764584699091    8.23238949472924   -0.02053727680095
C        11.01226851598272    8.72314993389923    0.68108677652477
H        10.81581364460361    9.37173737753419   -0.16141394765084
C         9.58049639519155    4.92554787424019    4.42825805434407
C        10.06678141857871    3.94398814761491    5.27033645370389
H        10.49786597841297    4.23943478012243    6.21409353250898
C         9.99251820656570    2.61593138371950    4.88690346858814
H        10.37002063111388    1.84609316030674    5.54473278428393
C         9.43143564760188    2.26303578399319    3.66492932622677
C         8.95651080013188    3.26874024589759    2.82949852077047
H         8.51787354761370    3.00688150572757    1.87785608226027
C         9.02691387439957    4.59859948129250    3.20534121471861
H         8.63688357095527    5.37508397161691    2.56732860205579
C         9.35273168737969    0.82933066198170    3.23719342970266
H         9.46960536693156    0.15983346230265    4.08546664734030
H        10.14557459002550    0.61157702634313    2.52154534333088
H         8.40076144425877    0.62768996911599    2.75181768838874
S         5.67645151537790    6.61751162782621    3.00358842745148
O         6.97107046984412    6.77009861750609    2.35376808192572
O         4.53346456234721    6.81798404891417    2.15066663908865
N         7.37746479575168    9.43988033524627    5.57713054159437
N         6.93790166399778    9.59153612546780    7.74078806220887
H         6.47088474487512    9.44002871953239    8.61852606573291
N         5.78753291906865    7.63982664844548    4.23436387743200
C         6.48065733459983    9.18901307753573    6.51864157412387
C         8.20377130359673   10.09276711749086    7.58106721211775
C         9.13278536186223   10.61154926961757    8.46814997591771
H         8.92858866325197   10.68094481737959    9.52589151526500
C        10.33793634328727   11.02647033353297    7.93545634470286
H        11.09384891238706   11.43056580323733    8.59195391496298
C        10.60589581603375   10.93169680385012    6.56831230906647
H        11.56563166711838   11.26440594928482    6.20291532712029
C         9.68159644256811   10.42110130931501    5.68012166603295
H         9.88126725944827   10.33786868134628    4.62391494886145
C         8.46674680360356    9.99382668264688    6.20069062417409
C         5.18149996071017    8.57573938067462    6.35318350499734
C         4.87848654306346    7.77001757567017    5.22321142549445
C         3.63660060319093    7.11405446471901    5.18168747842657
H         3.41953382106626    6.50377959725464    4.31862756665895
C         2.71021757484056    7.27409422087552    6.18435313522013
H         1.75739071060667    6.76935978589493    6.12034689954033
C         2.98971086178378    8.09208923685462    7.27469434831593
H         2.25571642730447    8.23238471675133    8.05336606139455
C         4.21108784490372    8.72315083771144    7.35172974137332
H         4.40754644994156    9.37173675016854    8.19423075935238
C         5.64284407806006    4.92555315621189    3.60454626466385
C         5.15657806262572    3.94399319153858    2.76245709473417
H         4.72550518265038    4.23944057541440    1.81869493710786
C         5.23084894293041    2.61593514019888    3.14588404030814
H         4.85336559383986    1.84609660741053    2.48804412616859
C         5.79192096876866    2.26303841026591    4.36786262561646
C         6.26682629717381    3.26874306288020    5.20330439150653
H         6.70545177388551    3.00688355383960    6.15495203314552
C         6.19641498574121    4.59860368969436    4.82746805343648
H         6.58642867848575    5.37508845176057    5.46549039970338
C         5.87063600675118    0.82933171965881    4.79559119532558
H         5.75376317310641    0.15983787894409    3.94731523455706
H         5.07779808335280    0.61156939322646    5.51124206955268
H         6.82260990968139    0.62769507973528    5.28096155219888

