78
CSD_code = ILIXOQ | q = 0 | S = 0 | Stoichiometry = C27H46NiO2P2 | MND = 4
Ni       -1.08347108764559    2.20228770740560   16.22870125612170
P        -2.26332371372029    0.85498658560800   15.02022113215911
P         0.74082941316202    1.09028462795851   15.70428520636673
O         0.11691861884956    3.28690745047666   17.12610667204284
O         0.23436555500689    5.57869318049645   17.00172159214190
C        -2.40686088727824    3.40890175493817   16.91241704422709
C        -1.82524012213467    4.52955590190497   17.54225351812444
C        -2.58797478701050    5.58730447783138   18.00756209652407
H        -2.09464057172426    6.43844997590977   18.45477502066032
C        -3.96530597804095    5.55165566823129   17.89632835137659
H        -4.56454541794238    6.37791778249182   18.25259060705583
C        -4.56887933184269    4.43878246933720   17.34076708639527
H        -5.64761300261259    4.38548272879970   17.27185899250897
C        -3.80232542610419    3.38873474994471   16.85809331243939
H        -4.32179333630285    2.53719844715626   16.43909608989885
C        -0.32851906483320    4.45164164857482   17.69713179843612
C         0.09652187298537    4.52514189582980   19.18980879904090
H        -0.18293649875967    5.51752609904226   19.55946344222463
C         1.61594162457064    4.38118985065848   19.24460625606245
H         1.98133615983388    4.61748726194600   20.24816441522400
H         1.87873429671489    3.33872388761765   19.03122348054289
C         2.24770662190984    5.29087562059214   18.23571379703263
H         3.29909989181867    5.50812354217506   18.33963725919442
C         1.55707372669519    5.81642573113058   17.22765849414544
C        -0.60123699033533    3.44721447305199   20.00845186992880
H        -0.19202097156110    3.41289981705311   21.01669307350776
H        -0.45177844333612    2.47977674012428   19.53236754334152
H        -1.67029866884077    3.63901190932382   20.06717239016390
C         2.13503609322948    6.75224318485016   16.20704275403380
H         1.54746321359550    7.66797549390399   16.17689141736436
H         2.08970944751398    6.29595895962859   15.21923207655590
H         3.16655376099280    6.99000668087721   16.44868740641973
C        -1.16140949831881   -0.56773457282067   14.51851332796092
H        -1.29743024893132   -1.32685357687744   15.29331706724338
H        -1.51658301834505   -0.98653483977266   13.57232193772581
C         0.31906972829706   -0.20232153020467   14.43008454803524
H         0.54036313176066    0.23492278322859   13.45397802844171
H         0.94577969151837   -1.08981067531195   14.53736368425530
C        -3.80877226953887   -0.07192134096583   15.51124938412925
H        -4.60718487986362    0.67723548735406   15.49822318514300
C        -3.65655531894314   -0.55444023375935   16.95140303380543
H        -3.32405569095522    0.26916636967597   17.58442317935092
H        -2.92943331265776   -1.36098351855975   17.02219973173837
H        -4.60640879025973   -0.92418158776705   17.33363495502249
C        -4.20817187079462   -1.20526338283499   14.57227507132143
H        -4.26685567190704   -0.86335542190445   13.54147822018500
H        -5.18882842130862   -1.58376693441072   14.85765122452440
H        -3.50564077645145   -2.03305799877635   14.62654607753499
C        -2.69932300703331    1.61396651285619   13.36944204407929
H        -2.78923722689936    0.81732031059896   12.61962547302586
C        -1.54828861235714    2.54783625160744   13.00091339782712
H        -0.65962519689298    1.98569116277162   12.72676998529720
H        -1.30959891532652    3.18728070433359   13.86115569270314
H        -1.81779646993394    3.18786234731899   12.16228215504622
C        -3.99765812611244    2.41253571238708   13.42461277611381
H        -4.85817128291844    1.77844090793565   13.62474145902077
H        -4.16418889285521    2.90525402859083   12.46739363622765
H        -3.92963035919898    3.17865694205439   14.19443515931406
C         1.25967962317832    0.13736005874374   17.21877482554591
H         1.72395302565164    0.90933068342601   17.84261152882554
C         0.00715516117818   -0.34360728948578   17.94858981293352
H        -0.73104605137926    0.46905063132146   17.97813319487698
H         0.24043649495135   -0.63566481805223   18.97164973326144
H        -0.43571345996830   -1.20135312252131   17.44539372318055
C         2.24972492383229   -0.99840998823888   16.98994253746643
H         3.11040052819427   -0.66995764290518   16.41177015038075
H         1.77958502777266   -1.83078247223500   16.46912632846166
H         2.60813187731371   -1.37087171104819   17.94889072474824
C         2.35089133311345    1.75777582176503   15.04332921687389
H         2.91909621433116    0.92424059405695   14.60793462028000
C         2.02727506247930    2.78257042913391   13.95878068683288
H         1.53550827742241    2.32593056941998   13.10194769315568
H         2.93793454804039    3.26327959586622   13.60407436624713
H         1.37185995320091    3.54680624296060   14.37464778550894
C         3.15663041543910    2.43715662266563   16.14527110810991
H         3.55828900628859    1.72182928440958   16.85895647138973
H         2.52023074101019    3.14826903658709   16.66780862175735
H         3.99428660759339    2.98193726261637   15.71120818394997

