113
CSD_code = ILODUI | q = 0 | S = 0 | Stoichiometry = C46H60N4O2Ru | MND = 6
Ru       -3.88137487883664  -13.30055163179392   -6.53020031107034
O        -4.72558171725635  -14.46745719787044   -8.00309066235322
N        -3.04150359004842  -12.07979357305761   -7.83045259116254
C        -3.08542101252558  -12.24363856528598   -9.12631005201651
H        -2.51906160716237  -11.55898267795841   -9.75980383001382
C        -3.79910314055990  -13.23631564241870   -9.84594848949415
C        -4.59337352622610  -14.28985128567123   -9.25280464018715
C        -5.25937596274198  -15.19780525810964  -10.15741586649953
C        -5.10911601340936  -15.04426764175073  -11.50615294141788
H        -5.61112782962467  -15.72904080679837  -12.16811056852296
C        -4.32314276482544  -14.03009827739541  -12.09601360310665
C        -3.69292695129165  -13.15830730701139  -11.25668645441305
H        -3.08320244554327  -12.35907347689370  -11.65042481766999
C        -6.11297609544988  -16.30970292476838   -9.55755993564836
C        -7.22784132937001  -15.69076287099882   -8.70149775392616
H        -7.84302071522041  -15.02509774653308   -9.30526749307407
H        -6.80283415081725  -15.12498940687872   -7.87734789598053
H        -7.86199643049641  -16.47396508582118   -8.29124145652400
C        -5.22960480725328  -17.21177822320324   -8.68302776897782
H        -4.41460803533344  -17.62889911103539   -9.27277165766819
H        -5.81934078025894  -18.03067413861479   -8.27625684805435
H        -4.81083557242195  -16.64443316739658   -7.85686941641710
C        -6.77399818796798  -17.18965953522514  -10.62430886694906
H        -6.03018057995808  -17.69186983251327  -11.23948024361851
H        -7.43528592938223  -16.60763651783541  -11.26299204751210
H        -7.37254389929662  -17.95509969732518  -10.13400188827469
C        -4.22542611330530  -13.96541369869773  -13.61216354383242
C        -3.63504783575163  -15.28176797609195  -14.13724411015269
H        -4.26226790244637  -16.12957113485097  -13.87650234101989
H        -2.64728243500703  -15.44567438730214  -13.71112487637024
H        -3.54287645082607  -15.24760280809450  -15.22116975376743
C        -3.33145173744254  -12.81966018206396  -14.09485547511707
H        -3.29277654873083  -12.82136496178197  -15.18259655108511
H        -2.31613596091967  -12.93344596887034  -13.72185025329489
H        -3.72295415224763  -11.85703411940481  -13.77394620784864
C        -5.62770102942098  -13.75533868331953  -14.20064755085211
H        -6.29356642933786  -14.57289290379733  -13.93893158937165
H        -5.57562146785194  -13.69282327836610  -15.28598049838809
H        -6.05862993267730  -12.83095739524722  -13.82122055559124
O        -4.70038356045646  -14.49126563081656   -5.06194661088383
N        -3.01805070644295  -12.10080225246565   -5.22530522944044
C        -3.14915311058931  -12.20904230207530   -3.92951682829733
H        -2.69307217820465  -11.44979521421655   -3.29208841829074
C        -3.83455283450796  -13.22439911627584   -3.21396051844474
C        -4.56856732683694  -14.31835922244308   -3.81151796046905
C        -5.19569791282353  -15.25716222618366   -2.91060848647971
C        -5.07844056773027  -15.08480995262836   -1.56084569539355
H        -5.54953533792723  -15.79381679479314   -0.90168823005392
C        -4.36857928988376  -14.01856647249280   -0.96638045703863
C        -3.77309982921540  -13.11954710622381   -1.80233314474307
H        -3.21578145068602  -12.28457880304494   -1.40512018088263
C        -5.97093593896641  -16.42262273812131   -3.51521346445102
C        -6.57872241142703  -17.34450682423585   -2.45220235254172
H        -7.28798567269922  -16.80983341297230   -1.82370079881462
H        -5.80766896894532  -17.78918826313383   -1.82634939339158
H        -7.11450396731288  -18.15301315306297   -2.94598506840748
C        -5.02526933974119  -17.26502038842711   -4.38412217939273
H        -4.63602105132128  -16.67068533427615   -5.20584717916331
H        -5.55876260356723  -18.11827895019562   -4.79785586295260
H        -4.19036588830686  -17.63164021229430   -3.78861826895691
C        -7.11863397587957  -15.87779700423050   -4.37819609082587
H        -6.72600089276415  -15.28827073676548   -5.20163678976782
H        -7.77759297817900  -15.25119660389160   -3.77891742690994
H        -7.69984126471084  -16.70083466972321   -4.78889016707560
C        -4.30595850540992  -13.93347322794154    0.55061567988223
C        -3.49282552677752  -12.73104770757406    1.03841036112199
H        -3.93439472212605  -11.79715799556123    0.69820825605280
H        -2.46473906781567  -12.78737899595138    0.68793804268041
H        -3.47730023234209  -12.71917330955548    2.12666276930392
C        -5.73011398769441  -13.80309924971290    1.10871170145737
H        -6.20796200127694  -12.90998506653892    0.71107491129684
H        -5.70424491817348  -13.72755634394633    2.19415422056135
H        -6.33998244793877  -14.66176381720100    0.84221140410513
C        -3.64805490517234  -15.20647813236742    1.10176297641246
H        -2.64516942009398  -15.31655956914612    0.69403441343881
H        -4.21963043674682  -16.09287464200425    0.84143735648260
H        -3.57663369436450  -15.15448048380133    2.18654644863407
C        -2.34825513016187  -11.06675717179826   -7.21147650521949
C        -1.68201124768235   -9.97815567641245   -8.01536452540447
H        -0.78983764236663  -10.38373232734542   -8.50693565321505
H        -2.36431362231473   -9.63435725917271   -8.79827510539128
C        -1.28414928877515   -8.79358582760429   -7.14170663032137
H        -0.64820585670845   -8.11388898891708   -7.71214489295671
H        -2.17813036776604   -8.24509597213458   -6.83753007384951
C        -0.55810246747447   -9.29699526500116   -5.90368133232897
H        -0.14904393663843   -8.46283934901154   -5.33037261952050
H         0.27234605950726   -9.93738561477253   -6.20833281672522
C        -1.52550310902007  -10.09162267735704   -5.03328772013279
H        -0.96204825674135  -10.61132938171064   -4.25288068334105
H        -2.22015653627661   -9.40268517287559   -4.53831776810048
C        -2.30969418172492  -11.09589879807713   -5.84061593499340
N        -2.29728707344534  -14.54832415088300   -6.53064352639132
C        -1.79291728000716  -15.02490153209306   -5.38597966629354
H        -2.14226627511246  -14.57099979158821   -4.46851786536327
C        -0.86860105690688  -16.05064396309029   -5.33009083425158
H        -0.51156243488255  -16.39410103343159   -4.37163760153672
C        -0.41832950824639  -16.62526465845535   -6.50892229921494
H         0.29629016550162  -17.43367668684773   -6.50009365972691
C        -0.91543883953747  -16.11777607801858   -7.69955209690731
H        -0.59584638273449  -16.51484848967766   -8.65045379259881
C        -1.83818938532867  -15.08940659281384   -7.66538004272916
H        -2.22226479962558  -14.68610007634145   -8.59255967128450
N        -5.58445155833357  -12.22459574181590   -6.52979536118826
C        -6.19685585070368  -11.89828592459897   -7.67447601888910
H        -5.65407997913042  -12.08294517759511   -8.59168223548734
C        -7.46464110720531  -11.35138055480222   -7.73024055486968
H        -7.90368652856231  -11.12069408318991   -8.68842279047168
C        -8.15421138989688  -11.11154062073418   -6.55135915392758
H        -9.14843457646837  -10.69232048173632   -6.56014226241525
C        -7.51636860178599  -11.42489862116990   -5.36084451817587
H        -7.99669001942954  -11.25316221394885   -4.41014564197383
C        -6.24638490996200  -11.96910312104105   -5.39506709228074
H        -5.74283214972967  -12.20863989959690   -4.46822138364177

