57
CSD_code = ILOFAQ | q = 0 | S = 0 | Stoichiometry = C29H22MoN2O3 | MND = 8
Mo        3.63793105424746   -1.77171595211366    6.74499345563795
N         3.09220720726370   -0.39392206505891    8.25015660384766
N         3.41867282183511    0.02855841318785    5.66845085329057
C         4.09192558626154   -3.27227068112924    7.89206797193385
O         4.31194120129947   -4.18937635153992    8.55217659796695
C         4.41430896248597   -2.85501017671567    5.33122296659989
O         4.82367557642671   -3.53040406961713    4.49330664325674
C         1.71572998847190   -2.87396806015064    7.53561542882847
H         1.73541666534140   -3.94975005465901    7.38448575905267
H         1.26044329293150   -2.58587151466686    8.47948886159588
O         5.39806618544197   -0.79031225538900    7.12928875008958
C         1.44516648733630   -2.07255109662430    6.40925302271772
H         0.82162220860974   -1.17955136206681    6.46676874390231
C         2.02232852604617   -2.50976326430303    5.20035751910639
H         1.80904492809628   -1.93362672380707    4.30390218339137
H         2.04411399018962   -3.58116041197125    5.02173873221306
C         6.66527330814770   -1.10923861628181    7.30378406752768
C         7.15091193538109   -2.35257453089658    7.15687649147826
H         6.49371429199750   -3.16002992889903    6.87693884962080
H         8.18376717666175   -2.59720016039921    7.30870436816169
C         3.03392842245486   -0.61613614919916    9.55478989276837
H         3.06479520145980   -1.65205635174814    9.86679674358440
C         2.94353858659445    0.39519185492662   10.50522471222387
H         2.89972684485381    0.13847889241780   11.55189050561471
C         2.91738206303787    1.71454523771739   10.09875995785537
H         2.84743139260895    2.52188746787717   10.81200831281642
C         3.01081957810937    1.99238883810396    8.73077081931374
C         3.10509084783143    0.89543066633909    7.84155729718921
C         3.28139899135578    1.12300863596384    6.45202686470841
C         3.36232670185003    2.44673354336699    5.95891068879904
C         3.61092676180568    2.61787587186960    4.59277055024640
H         3.68197085043796    3.61075155004063    4.17509651767187
C         3.78560783286393    1.49333790800449    3.81052968019441
H         4.00394771544576    1.58103490748317    2.75781892618598
C         3.68517895186848    0.23160160622305    4.38627758638093
H         3.83135049683442   -0.65344865363940    3.78078505542767
C         3.05331918744407    3.31448796810166    8.19905390952195
H         2.96746415818049    4.14067254227769    8.89000758789746
C         3.22166252046197    3.53173214179807    6.87288413455771
H         3.27547146341074    4.53589863889816    6.47827959854087
C         7.51168080746811    0.05418678063421    7.68556167895231
C         8.91116608584634   -0.03196238118284    7.85935719545306
H         9.40924543468500   -0.97611168934076    7.70841185684073
C         9.64479120083181    1.06321485210169    8.21229366868057
H        10.71537604839492    0.98218063528921    8.34184635925347
C         9.03644426829550    2.32087599766330    8.41428794618949
C         9.76545759405496    3.47022256881174    8.77795045261906
H        10.83518241994061    3.38699634621306    8.91074443331742
C         9.13385995468804    4.66953567093410    8.95985554636125
H         9.69864800754578    5.54753247936085    9.23850041908096
C         7.74469567417943    4.77262605631607    8.78558650577339
H         7.26346341980479    5.72929816493982    8.93273178143782
C         7.00976580813591    3.67549710265971    8.43363965760243
H         5.93856668464331    3.74700033814478    8.29701735037380
C         7.63207309474749    2.42394150646439    8.23943801215296
C         6.90600246176686    1.27673993200013    7.87783124789622
H         5.83518107159066    1.36094738527525    7.74602867629412

