126
CSD_code = ILOHAS | q = 0 | S = 0 | Stoichiometry = C36H81ClO4Si3W | MND = 5
W         1.44090222707030    5.27739130400864    1.35507839323767
Cl        3.76929840154012    4.72419568460338    0.96769817664238
Si        2.57827212455434    8.14856633560818    2.89669399873874
Si        1.23704664091943    2.33821106290860    3.15299917859789
Si        1.05679198740103    5.21589779312329   -2.07443335870008
O         2.25594948064691    6.64231380008344    2.39162571263404
O         1.45817337872482    3.51615405535155    2.06159362547720
O         1.49077768542626    5.46757560995635   -0.53292417745085
O        -0.17011085525662    5.65861480184123    1.62447526629118
C         0.81683085422962    8.80352875672859    3.44212669696434
C        -0.08120510789950    8.94198480333652    2.20712772100084
H        -1.10612066671065    9.14842088836320    2.51571656362170
H        -0.07747618120031    7.99418666858275    1.65563727171411
H         0.23767669546736    9.75451349204466    1.56122565069566
C         0.15678145303617    7.70805890715391    4.29076052027853
H        -0.87544100063384    7.97710381394855    4.51350276594402
H         0.67247180668386    7.54412893893862    5.22985170532158
H         0.15246385055727    6.77670722893338    3.70895465507855
C         0.81955656500909   10.13139512099701    4.19905929831414
H        -0.20059305121088   10.43238619096852    4.43494021948167
H         1.27672053900553   10.91513908233564    3.60153438606028
H         1.37045016869931   10.05515171953835    5.13111117343319
C         3.89946708020489    8.10817337057861    4.33704770736754
C         3.26744729822634    7.81801589510507    5.70390150320027
H         4.05041931753781    7.72062615319171    6.45697243812706
H         2.69656509821033    6.89744751597180    5.68864419787849
H         2.61506956311586    8.62911692755412    6.01301108585065
C         4.61996140688321    9.45153438030248    4.47650424389035
H         5.19689565642023    9.69309067385865    3.59084656530676
H         5.30696980877887    9.41838770573278    5.32163992141845
H         3.90647383764813   10.25256165559409    4.64920414451084
C         4.93354371696306    7.00679251751617    4.06210111971215
H         5.59989922877316    7.28146716975073    3.25201550538333
H         4.44502096460386    6.07607238682741    3.78322361463260
H         5.54188026646287    6.82754586355133    4.94865148732371
C         3.27823292045875    8.99389504779615    1.27235682910389
C         3.29819507327184   10.52337185866669    1.30735928048305
H         3.69231866268795   10.91648928328629    0.37049093882590
H         3.92283708046871   10.88600709720590    2.11705442939946
H         2.29816414780219   10.92376579149937    1.44762323453225
C         4.69470689815750    8.48444768242627    0.97371951725135
H         5.02745596435851    8.84976786224419    0.00124714022074
H         4.71281452298969    7.39592955338725    0.95142902721697
H         5.40975084780567    8.83045849590091    1.71272216121402
C         2.41286672345280    8.54612161097146    0.08612483338983
H         2.95091251271143    8.73626085306170   -0.84223436582526
H         1.47057620347719    9.08346810204641    0.04504702665256
H         2.19463941730086    7.45881759750764    0.15184639430362
C         2.36460340407457    2.93074663385396    4.64266036336919
C         2.06533100948402    2.25035380674241    5.97995404966230
H         2.72616042423025    2.63703116711606    6.75543510067875
H         2.21250618897218    1.17747741993238    5.91249839446610
H         1.03975045399408    2.43127982289244    6.28896861053284
C         2.17580314655418    4.44423974261098    4.81468647860903
H         3.00029611222358    4.84281309845364    5.40517014007779
H         1.24888978641263    4.68279224940267    5.32670298919165
H         2.17141343512269    4.95088401897983    3.82585611536062
C         3.84734589307735    2.72934957645058    4.30210822915484
H         4.47397818780830    3.18580486819823    5.06948728819327
H         4.08692202265434    3.19477974205377    3.34718774738672
H         4.10843436390620    1.67742088549408    4.25284311107575
C        -0.68297058639049    2.44294374539770    3.51549788644530
C        -1.40393760760765    2.54317010606020    2.16433702532502
H        -2.46614340433056    2.73146751632402    2.31845637240889
H        -1.30378080547315    1.64038641678481    1.57299426274624
H        -0.97998597383081    3.39136509244559    1.61084113536967
C        -1.25538093111066    1.28882327343002    4.33791450354348
H        -2.32033700805320    1.44097741518544    4.51026650695907
H        -0.76029304824882    1.22010005042047    5.30251326157343
H        -1.13065659707879    0.33884030615463    3.82802604766298
C        -0.99838571792985    3.76202677214059    4.23081919997201
H        -2.07790176958421    3.90090549881982    4.29184651158860
H        -0.58205810089746    4.59255216572364    3.64845819685463
H        -0.60714426461990    3.77933420855806    5.24359153294533
C         1.82253739081539    0.62298331624657    2.42040327162761
C         3.07549692403370    0.82670002405983    1.55626031750944
H         3.28118150635865   -0.06851898493955    0.96939152539397
H         3.94863956625781    1.03203782499684    2.16549538073409
H         2.94649902351756    1.66483384254495    0.87544670992896
C         0.75378176886704   -0.03187126657760    1.53673774759514
H         1.15593227666252   -0.94050002196644    1.08692759978960
H         0.44035057560431    0.63041825560972    0.73869520102572
H        -0.11740641910918   -0.31359916899011    2.12042778540598
C         2.13548633945108   -0.38347712192580    3.53047665803710
H         2.40434596154067   -1.34536572830176    3.09483213661698
H         1.26949025843528   -0.52964037671208    4.17013384888326
H         2.96473750470547   -0.05684186494601    4.14797866697901
C        -0.82409277168575    5.75611041943002   -2.08051880558000
C        -1.46944762712098    5.86400182114735   -3.46185037669571
H        -2.51984801689625    6.13710966075495   -3.36643530734858
H        -1.41018330829489    4.91669952883238   -3.99044415325645
H        -0.98075632101085    6.61902899271601   -4.06949656937338
C        -1.63925277230184    4.77443383643657   -1.23042585073842
H        -2.65168224451265    5.15475248439457   -1.09392004558555
H        -1.17346331073120    4.68789531755351   -0.24138617523935
H        -1.71518943684810    3.79708518778593   -1.69741659870462
C        -0.92289718688962    7.09713268283009   -1.34040793348648
H        -1.96778835436299    7.37647142494731   -1.20751598617288
H        -0.42376216444190    7.90053683220147   -1.86961729623286
H        -0.46916954066174    6.97680847054865   -0.34761836125420
C         1.33505253767019    3.28633221704073   -2.28063649070814
C         0.82545519399482    2.58939679491406   -1.01145042602709
H         1.24539603941401    1.58514970762002   -0.96077810479105
H        -0.25660324379038    2.50289146261532   -1.00235205439479
H         1.14078387066394    3.15003118485354   -0.10565892759156
C         0.63128244462373    2.66587953089522   -3.48928090435234
H         0.82665635439697    1.59451476979759   -3.52967969758443
H         0.98270562406443    3.11003898217834   -4.41477968177368
H        -0.44369958947998    2.81131902529176   -3.43231660191252
C         2.83415552805673    2.96819232623825   -2.36113806826054
H         2.99037911498329    1.88890993113028   -2.33630152430291
H         3.36419577721890    3.40704738461655   -1.51731193821068
H         3.27381816475949    3.33890911350738   -3.28117844300580
C         2.19067604718077    6.25759210048588   -3.27851733762105
C         2.18004594676626    5.68014815466005   -4.69613776610754
H         2.76993765482618    6.31218297124739   -5.35938441096849
H         1.16593597426497    5.63373481177077   -5.08320999957275
H         2.60333669179890    4.68238312564105   -4.72725330170511
C         3.63311393821425    6.27608721952971   -2.75237617351985
H         4.22131110906002    7.02326452154682   -3.28523820188120
H         4.11702594232486    5.31518854330486   -2.88687254080685
H         3.65671028259116    6.50924531579684   -1.69054257720963
C         1.72673325405937    7.71386668023088   -3.40485554183434
H         2.43500386421515    8.27287181379748   -4.01766618721753
H         1.66475189454686    8.19458995322610   -2.43588925026328
H         0.75654013394702    7.77438225886014   -3.88867372412111

