54
CSD_code = ILOJIC | q = 1 | S = 0 | Stoichiometry = C20H25MnN5O3(1+) | MND = 6
Mn       10.16035636078046    8.44901693183965    9.35896831449224
O        10.76166479221923    7.95054491986197   10.91067303640286
O        11.70323069560088    7.72786671436624    8.40335822907720
O        12.69961683373881    9.29553448112461    7.19588079367323
N         8.27562559498981    9.10593529409281   10.11651029812891
N         9.33965458054456    9.27105810377783    7.67559344494493
N         7.75108031440509   10.42766793658054    6.67835450648026
N         9.15045260270301    6.79179133022246    9.02458683345916
N        10.69393348038612   10.34311767862226    9.84465387757187
C         7.41173140805925    9.76417385583351    9.11725191815703
H         7.14329178064038   10.77789011623342    9.44318648777134
H         6.47699614447800    9.20206125402994    8.98818735930160
C         8.14733276899245    9.82850452236120    7.81904804098665
C         9.73067417283421    9.52402245107272    6.39322875101726
H        10.69018666934027    9.21246401474728    6.03232161182934
C         8.75411146002537   10.24055753528572    5.76875383917824
H         8.69545928758311   10.62346826289571    4.77167540418184
C         6.51689763848745   11.13168527291453    6.46167880157778
H         6.43819076379623   11.98614419554958    7.13643658220129
H         5.66326870729380   10.47226870376334    6.62763758136282
H         6.48766644404681   11.49214738101946    5.43605782862188
C         7.66997341632526    7.85935163230337   10.61225286016268
H         6.59363846340028    7.96959527264783   10.80027464318595
H         8.15098674919141    7.59024187427363   11.55972934422094
C         7.94271552259894    6.74819840955449    9.62308784675203
C         7.03304277456246    5.73446687501372    9.37846903746516
H         6.07702814383381    5.73541228803545    9.87918062571669
C         7.37034166605254    4.71575914793116    8.49735703180712
H         6.67865874999656    3.91372356139224    8.29612844203976
C         8.61746497233224    4.75747984925703    7.89181311917729
H         8.92829149050172    3.98505923998085    7.20775101042711
C         9.46915480654863    5.80751274108341    8.18212943587629
H        10.45441245023345    5.88125183314816    7.74265385404190
C         8.68454356763361   10.03974069619948   11.17520518457348
H         9.07649544043724    9.46153393996321   12.01871563928819
H         7.84201345913525   10.64586396793408   11.53429359960281
C         9.81199814998528   10.91622689135073   10.67999300759139
C         9.93531279650556   12.23123562478838   11.09705453672170
H         9.20591854364030   12.65409906785352   11.77098174335036
C        11.01033637744354   12.98760518866189   10.65177527589551
H        11.13214172877346   14.00952856120529   10.97491403087859
C        11.90887444058584   12.39719601673105    9.78086089823266
H        12.75597611716442   12.94087538770731    9.39651993715347
C        11.70964378363559   11.07804898392333    9.40154566157148
H        12.37113565327258   10.59733747625949    8.69118649259102
C        12.68980341892064    8.19111852964352    7.71961460783284
C        13.84686650367754    7.21751394609863    7.54765388355787
H        14.78191057659546    7.76891061254271    7.52532998828871
H        13.73035055659478    6.70430956648288    6.59506930042341
H        13.85275115452180    6.48597733879648    8.34993727182345
C        11.11785437161124    6.68940008399678   11.33617275734934
H        11.51768329425958    6.73940794630232   12.35790254522732
H        11.89557515924055    6.29573647292935   10.66372887987094
H        10.27228319984439    5.98466001981318   11.31667396688455

