132
CSD_code = ILOJIE | q = 0 | S = 0 | Stoichiometry = C60H55F6N8O2Sc | MND = 6
Sc        6.62438841816612    6.44281419632484    5.75587641431762
O         7.17784435375441    4.95763301439076    4.88359178760611
C         7.97704172910512    4.29400567116750    3.98056071910027
H         8.89286863266373    4.86568262113484    3.74693527812613
H         7.44370511537174    4.11575534543351    3.03233982554289
H         8.29070634942967    3.31937005060554    4.38734733898227
N         5.33787316397516    7.73957083308219    7.13395353055556
C         5.13337397161723    8.94816918047046    7.84428835732079
C         4.78321989370858   10.14342560507939    7.20479921529115
C         4.63264591239895   11.30368624953250    7.95495786631989
H         4.36235725106689   12.21774223585609    7.44484935098210
C         4.80025147078924   11.30322227863236    9.32511259009534
H         4.66412531370789   12.21125379632460    9.89352196722757
C         5.14377780539098   10.12330178787605    9.95976324801387
H         5.28018638454834   10.10457383744584   11.03184388115868
C         5.31847595915468    8.95559179971242    9.23642258460869
C         4.52676154500530   10.20857583095995    5.73049981030965
H         5.06909749342344   11.04123506400624    5.28396518875830
H         3.46280787071841   10.36488623008673    5.54807703203966
H         4.83482794753608    9.28504774130966    5.25126718017037
C         5.71740151922007    7.68874126765689    9.92174348963891
H         6.48658623556662    7.18203391673627    9.33592073133204
H         4.86849108739055    7.00910603814600    9.99698652156638
H         6.09088146008865    7.88719268848766   10.92362321152057
C         4.35779785167129    6.84925587293907    7.12172959737213
C         3.04335495984257    7.04142467052528    7.63483267894711
H         2.81397507311450    7.96914528646313    8.13485541752947
C         2.10361192594255    6.07120089700382    7.44449249962951
H         1.09399787575458    6.20878552514344    7.80341847736673
C         2.44262482666170    4.88210044143455    6.78960663337683
H         1.70823599192135    4.11267186897222    6.63054267368934
C         3.75028903142690    4.72287777292888    6.36969253827093
N         4.68691720658899    5.66633112593177    6.50339718797241
N         4.14011626117817    3.51304791184086    5.74613683598722
C         3.21260959357083    2.95704350292017    4.80221648227003
C         3.21298056680433    3.42975440710451    3.48895244585852
C         2.27233817946303    2.91664757348352    2.60359990043961
H         2.26697490778782    3.27616304549074    1.58543934115934
C         1.36405733185797    1.95709063225569    3.00595314579544
H         0.64036441080630    1.56830263011641    2.30539974026489
C         1.38939242616079    1.48679469534090    4.30490394572379
H         0.68993824774133    0.72730741789671    4.62118888800079
C         2.30978779305295    1.97664374183449    5.22243549396139
C         4.21958739484673    4.41613711842215    2.98861968634628
H         3.73525333453855    5.17296732557170    2.37764484402142
H         4.93662557183895    3.89711913436020    2.35278582501554
H         4.77827835141534    4.90537011670259    3.79094423785664
C         2.30970529452644    1.42034259956742    6.61580773184124
H         2.94972890446768    1.99042062296943    7.28366320512632
H         2.67179527792263    0.39327481117081    6.59633331217961
H         1.29796231450974    1.41076818162796    7.01908595068515
C         5.31422582901715    2.88290295764900    6.03740131117140
C         5.70619837364214    1.71906169402869    5.12546998619940
F         5.69008251943703    1.99259660154214    3.81710903681505
F         4.89787002727370    0.64962648040311    5.28708944841195
F         6.93473176344651    1.28143005417293    5.40290035430271
N         6.13911314337256    3.04107857381415    6.98202024443972
C         6.12523528368895    3.77281747985288    8.13894248112359
C         5.05347128959021    3.75515825614517    9.03517167039731
H         4.12156377677620    3.29239996503127    8.74354712997442
C         5.20327687914326    4.25495808335014   10.31431800009672
H         4.37575143348167    4.20168073897810   11.00690518623506
C         6.40986699125069    4.80254383419682   10.71499441562247
H         6.52978089324669    5.17289485013820   11.72158716471337
C         7.46906011077371    4.86290761005365    9.82327398608539
H         8.42144028486153    5.26418130821884   10.13873694892104
C         7.34692132031017    4.34692210579815    8.54214910365058
C         8.53019568447794    4.18799582403086    7.66706208422900
C         9.02776362584519    2.89710071844515    7.50441025814891
H         8.51386388183535    2.08013737694087    7.98402788692284
C        10.15332333583462    2.66619577990785    6.74572679265351
H        10.53491733760226    1.66380888771846    6.63066023122856
C        10.79883875740903    3.71819970957766    6.11512545799868
H        11.67317880736750    3.51952817652859    5.51683701056552
C        10.31698718373560    5.00779625778793    6.25365258792585
C         9.17485940749780    5.25394673159814    7.04680072043772
O        10.85867024204221    6.10641491757374    5.63027458114817
C        11.85644677270187    5.87457354467891    4.66209476763774
H        12.78042729452494    5.51442326040189    5.12488699113364
H        12.04601080775039    6.83612351006671    4.18810137755484
H        11.51936087288943    5.15940280840182    3.90588119557223
N         6.13676371554856    7.61293802016198    3.87997837256171
C         5.56014395447681    7.61357682395444    2.59911994031688
C         4.16564170416671    7.63757409375220    2.43981648991978
C         3.62321609678612    7.62777778668115    1.16222253207758
H         2.54796780824713    7.65835308439640    1.05068341465656
C         4.43019292779313    7.57927928116801    0.04140213591823
H         3.99372508808612    7.57850085860964   -0.94624847667826
C         5.80228900786485    7.50963325849028    0.19919982800949
H         6.43999475441141    7.44176966259606   -0.67117158503809
C         6.38034461613444    7.52149409363094    1.45862744385392
C         3.24280489369597    7.66715257208813    3.62411808107688
H         3.73921701518346    7.26065576064333    4.50639806120840
H         2.34405319429018    7.08589287689449    3.42246121002653
H         2.93482802340807    8.68968476381405    3.83992600238510
C         7.87045501480995    7.39826253113005    1.59056980837805
H         8.28062536638552    6.87311788402185    0.72993224061827
H         8.12321476500296    6.85105278503111    2.49919396695336
H         8.34342045367240    8.38029333458416    1.64761703235342
C         6.99789650685775    8.57165073223365    4.20173076090559
C         7.16038848006732    9.82411256333597    3.54600244407759
H         6.58879571017002   10.02811652283967    2.65432271082959
C         7.98417402200783   10.75788112371040    4.10836540092274
H         8.09694360565036   11.73048041047443    3.65123448463774
C         8.69576961508228   10.47374570316378    5.27847754578421
H         9.33967500943756   11.21790499005029    5.71138318131061
C         8.54185196294409    9.21247086614953    5.83707895058455
N         7.71725573178291    8.30334126942004    5.33360303100128
N         9.32508256249440    8.83500979385464    6.95622099297014
C        10.15928469144324    9.87740657346067    7.49790945100788
C        11.40281700707017   10.14702846769874    6.92842792889761
C        12.17382886132621   11.16161824870808    7.48525297677264
H        13.14379798982327   11.37116178557660    7.05999755596650
C        11.71011206372509   11.89991720756958    8.55592561567722
H        12.32287641932205   12.68229475546501    8.97725679056284
C        10.45215296291503   11.65113884562852    9.07548714432867
H        10.07813053624455   12.24439759661306    9.89576544401551
C         9.65588536627803   10.64416974012065    8.55156303808805
C        11.90515864834366    9.41714576018103    5.72106311788681
H        12.89594179223040    9.01097614586132    5.91469905243526
H        11.98046064491646   10.10997741531878    4.88291379363113
H        11.24205853772708    8.60524420041474    5.44079226886250
C         8.29019264028194   10.37217741532399    9.09088503569356
H         8.27551765794831    9.43053236625775    9.63763910510417
H         7.56263627887930   10.29772542299340    8.28451176409954
H         7.98050516173086   11.16322921153785    9.76739263470693
C         9.44525471770282    7.55754548488605    7.38546699861492
C        10.60280724344750    7.32549737148167    8.39224641492478
F        10.57924176707878    6.10540547267707    8.93980925499229
F        10.52718253097761    8.15688289197873    9.44861762582273
F        11.82854539375059    7.47776982181307    7.87833014465993
N         8.67474776034619    6.57712004404353    7.05039659304106

