124
CSD_code = ILOJOK | q = 0 | S = 0 | Stoichiometry = C58H51F6N8Y | MND = 7
Y        16.00694004311898    4.74719102388462   21.56463382565863
C        12.32293199588359    6.26193915742936   20.07542503268799
C        10.97812561305153    6.21287461785559   19.74125429209132
H        10.68363054499820    6.37710855746551   18.71405523951631
C        10.01523251704075    5.95898509830234   20.70156118123089
H         8.97143568145705    5.92112055321173   20.42739827879581
C        10.39681394536241    5.76390471117946   22.01625162321584
H         9.64751104565926    5.57738655279508   22.77231544220147
C        11.73186031164657    5.82112087752419   22.38711109782572
C        12.70679329720018    6.05808659486017   21.40844925485602
C        12.12471879965618    5.64982246881148   23.82498956549313
H        12.95616460440099    6.30720018465626   24.07449919705255
H        12.43187037541166    4.62223183776184   24.01992093543996
H        11.28516235928484    5.87918836178459   24.47730463271752
C        13.35666992839189    6.54652286374139   19.02691505755600
H        12.94288824913291    6.40249526086344   18.03050086928927
H        14.22300276725460    5.89335839175036   19.15468833766350
H        13.70370569325588    7.57788250863919   19.10887975412128
N        14.07063988000422    6.06448931792683   21.77265058998315
C        14.68583892751515    7.23065688779583   21.95081629813448
C        14.11268405085000    8.51786469811419   21.78038823238082
H        13.06206594620429    8.60077639011441   21.55119490616730
C        14.92781785029733    9.61333801323035   21.86237838198019
H        14.53058871201804   10.60179758993754   21.68114483523284
C        16.27804403299237    9.47009131769348   22.18550520154334
H        16.92405147588772   10.32932692578816   22.23208178163876
C        16.75185050144120    8.19435123432718   22.46515287609338
N        15.99575475880744    7.10385788271886   22.32931442560275
N        18.05354361881182    8.03723385941651   22.97101865334141
C        18.80420513031144    9.21564649901544   23.28274730853801
C        19.89468266724655    9.53697816225294   22.47081329900031
C        20.63666959202664   10.66927139579411   22.78193987078079
H        21.48525538076555   10.92645702576197   22.16582393118366
C        20.29712588333839   11.46528421912439   23.85925734201853
H        20.88500108851638   12.34095954361040   24.08963140195777
C        19.20121210881949   11.14446663183148   24.63909546135848
H        18.93291908180355   11.77033935559131   25.47703066226767
C        18.43772561818647   10.01824629522594   24.36704835599618
C        20.25612718617289    8.70107270428762   21.28028531916021
H        20.78849456518448    9.30455251997444   20.54911103204196
H        19.37564329683197    8.27101661488935   20.80738570258301
H        20.91251624557846    7.88069260555666   21.56981777895592
C        17.24958862032233    9.69430326893496   25.21892338041683
H        17.05391254567224    8.62547217099174   25.23825758415580
H        16.36108630719199   10.19039029541290   24.82663489406196
H        17.41392233153940   10.03986360997710   26.23630508986207
C        18.68227504011964    6.82115238147549   23.08105079402320
C        19.67949235578893    6.71085216783448   24.25384821529268
F        19.44098923515257    7.56911585060253   25.25713410727458
F        20.96071995389990    6.90565778763244   23.89560941930945
F        19.61423312122370    5.49884875443413   24.82597132209025
N        18.39119316705527    5.83876337927546   22.32883187068393
C        18.86023309057361    4.51877666170463   22.40306242689222
C        20.20016100841124    4.15989701718307   22.48346336628239
H        20.97852356018845    4.90961047635042   22.47806825091151
C        20.52847680016741    2.81677195587366   22.53121358633002
H        21.56594838448684    2.51973062783280   22.58020700240447
C        19.52659509943976    1.86264677260909   22.52537775526296
H        19.78459623871278    0.81403503708885   22.58264820941636
C        18.19485623873137    2.24281204138732   22.40826335723989
H        17.43952294060156    1.46227295890333   22.37427668690428
C        17.80325177216928    3.58030638234665   22.30243756339096
C        18.10348503501164    6.81269882644230   18.56342098223563
C        19.29276671450129    7.33005648726341   18.07839100013796
H        19.36506605357385    8.38944452404581   17.87464120797091
C        20.38170359256375    6.50779737644119   17.84954744635455
H        21.30520398178934    6.92048864373633   17.47143566276934
C        20.28081542612880    5.15515396983073   18.11511916610101
H        21.13284951190872    4.51108135899139   17.94836023512092
C        19.10552600469578    4.60012160739032   18.60009975418574
C        17.99777560377792    5.43619417346654   18.82104389118193
C        16.92018173164649    7.70320068578177   18.79843599264562
H        17.20990735465651    8.75154100934025   18.76507418143662
H        16.47225026446028    7.48444817146098   19.76896014215423
H        16.16127350967796    7.52948236968353   18.03466630084272
C        19.05118942169255    3.13155794101521   18.90147808753584
H        18.41526082730847    2.93715126667002   19.76587845653003
H        20.05003307523080    2.75529765091069   19.11254325371480
H        18.64772533907568    2.57352876347648   18.05454208921634
N        16.81636477957309    4.95063601798193   19.39600098660786
C        16.10559438814582    3.97439081569844   18.84985691111612
C        16.19287584623677    3.50225930562801   17.51295318677760
H        16.90284490029633    3.96064247080754   16.84297993257742
C        15.36188405743348    2.49237234481952   17.11603726014575
H        15.41034918230127    2.11080451281530   16.10655608777292
C        14.43882507523406    1.93642534217457   18.00775429110106
H        13.80042367298139    1.13038717186454   17.69219312940951
C        14.37732932948170    2.46367267322668   19.29048320960623
N        15.16689220919462    3.44881404486390   19.70055748052107
N        13.42934506885179    1.95555527417442   20.21191556546965
C        12.45631160399034    1.04951088824260   19.66138030350861
C        11.34773760310877    1.56761307520353   18.98642108793963
C        10.42046018470812    0.67725650599204   18.46687949462129
H         9.55117945650585    1.06132877176215   17.95537752384876
C        10.59873741578432   -0.68879456392068   18.59794990954629
H         9.86390716378460   -1.36939841699297   18.19570919437377
C        11.72582880338906   -1.18285382800983   19.22385846215376
H        11.88181930243501   -2.24829970506287   19.30038161323990
C        12.68144072142626   -0.32403575278546   19.75589470684669
C        11.17214225327958    3.04358865770028   18.83766964053536
H        10.32276156450857    3.26204015228474   18.19686578818929
H        12.06437063824922    3.49735007020360   18.40907948400030
H        10.99890915672219    3.50932718142216   19.80609658106133
C        13.92162006604211   -0.89725461723055   20.37500422932819
H        14.69424457746983   -0.14483660749457   20.51478624573456
H        14.31797960604934   -1.68272552274939   19.73414933613219
H        13.68790543290315   -1.34610857425234   21.33983151036746
C        13.50869663256355    2.09453719931632   21.55746077487601
C        12.26175252456617    1.61563794205486   22.33943502658420
F        12.20636784646027    0.28855099547233   22.53985101658208
F        11.10842095487663    1.96004910689690   21.75387595613025
F        12.21213009114031    2.17638134828877   23.55413326742017
N        14.49693930795632    2.61936520882378   22.19093169202359
C        14.76058602847939    2.39188270402314   23.54503339621605
C        14.87373826121233    1.08364136841400   24.02096044691102
H        14.65881633144537    0.25626629307633   23.35971788842214
C        15.29276099176271    0.84545850807821   25.31583810761790
H        15.38074543816952   -0.17224298724958   25.66522250114880
C        15.60092659754329    1.89981649896751   26.15791870841533
H        15.93036409271105    1.70984309434541   27.16750647510500
C        15.48603181446058    3.20061915211394   25.69534971150911
H        15.71953073016296    4.02771602701776   26.34901172923701
C        15.07501758872676    3.45237848760528   24.39925102652781
H        14.95688407666274    4.47911962807472   24.05416912506517

