52
CSD_code = ILOKEZ | q = 0 | S = 0 | Stoichiometry = C23H17Cl4MnN4O3 | MND = 6
Mn        1.02988546198944    9.15284273396454    3.36228289319237
O        -0.81213812451626    9.28293917544699    2.90795674089237
O         1.90892848338693   10.43865996008097    2.24685801752483
O         2.74977433723601    8.57338164037216    3.68471800100342
N         0.29613978839483    7.62198133833379    4.61889160042692
N         1.01452295956936    7.50322906704135    1.99912953697646
N         1.17189517976334    5.31671276545242    1.87018542795296
N         0.77729994630702   10.22200362734567    4.90504506555379
C         0.82681767216993    6.32545624718170    4.17386913728617
H         1.81443254116564    6.16560743616604    4.62311287957493
H         0.16674520621888    5.49658922379028    4.46588228536027
C         0.98686214884333    6.37559538998802    2.68548040256928
C         1.21791097540613    7.16760919009262    0.69967044626059
H         1.27721773778031    7.91560071952258   -0.06419428883585
C         1.32017162706360    5.81200451796939    0.60354437821376
H         1.48472639998014    5.17335851762514   -0.23895139325978
C         1.23991123532114    3.93665785878928    2.26159735284050
H         0.31592936931298    3.63339617470607    2.75814093733113
H         2.07770782288177    3.77579568218221    2.94297537332729
H         1.38260966619465    3.32131622666087    1.37584894066727
C         0.75529514875047    8.05252833355863    5.94753701646047
H         1.83127919049825    7.86078999964516    6.02262623994036
H         0.23349373465638    7.52288220698387    6.75432081127261
C         0.53538297595844    9.54189311975095    6.04722151342421
C         0.12457473428692   10.16804352340431    7.20659827933193
H        -0.06184401628295    9.58479563268611    8.09523618930907
C        -0.04223680952909   11.54836123678986    7.21545976644687
H        -0.35846551612958   12.05812769327039    8.11148228809299
C         0.20720253791725   12.24512553273341    6.04253835476142
H         0.08880072408795   13.31585244312018    5.99782891736997
C         0.61403104000249   11.55032224844700    4.91931524186281
H         0.82408865370653   12.05207669746319    3.98303023051949
C        -1.15668614227284    7.66702820135693    4.54951626453679
C        -1.99614533544576    6.87305220781309    5.30528747879424
H        -1.59324930215187    6.14141401006515    5.99429327037378
C        -3.36848213164541    7.01974852201865    5.18238763099231
H        -4.03085504695690    6.40368387563130    5.77020553803092
C        -3.88394188490585    7.96439458807473    4.30425655748911
H        -4.95472284088800    8.07845723393607    4.21946853609616
C        -3.05741866189812    8.75713953247929    3.53820772728010
H        -3.45733345938409    9.48993557363888    2.85534172109976
C        -1.66017126114811    8.62276002027891    3.63610518209637
Cl        5.08986383911565    6.71927654092904    3.15676218356230
Cl        6.77530027005867    7.66127320572973    0.68732506096988
Cl        5.88303238505254   10.13908350507674   -0.94051286393078
Cl        3.26563318367660   11.66165776046838   -0.20513365595992
C         3.00462643877360    9.90789972485359    1.82760315732742
C         3.47356863424488    8.80280612283643    2.63025463194367
C         4.63327194159053    8.12133704381232    2.26421944761477
C         5.36639089417230    8.53012225385883    1.15759071327077
C         4.95471659665469    9.64157772801932    0.41750742622112
C         3.79504905095754   10.33251618857625    0.75037540853660

