57
CSD_code = ILOLOM | q = 0 | S = 0 | Stoichiometry = C15H35FeN3OSi2 | MND = 4
Fe       -1.25295662788526   11.89618686716462    5.17770830838387
Si        0.76400365328214   11.73373193197609    3.07595178445064
Si        1.15165178391636   10.22816811530000    5.79136226409187
O        -1.11428208520237   13.29109661745959    6.43108177619458
C         1.99798621878892    8.63698974873587    5.14830616642796
H         1.28352127222760    7.93106232249865    4.73897264924662
H         2.54213062256184    8.13653570119299    5.94241246534078
H         2.70740773757274    8.87598914770752    4.36332020870276
N        -2.55808018493220    9.71231403800230    4.76463511109041
C        -3.46943249553103    9.28216119635299    5.81121118781810
H        -2.91818171031606    8.69497960518763    6.54128036181624
H        -4.29412887227477    8.66792415036307    5.41664807078621
H        -3.87668015181556   10.15140542727898    6.32002686338670
N         0.24440823762998   11.02794879361970    4.56043862362314
C        -5.30834695211207   13.77810428863178    5.36507984718847
H        -5.48133859851454   13.90159605903801    4.29651966074943
H        -5.61345392201033   14.68727012272752    5.87388238015682
H        -5.93956809951820   12.96041682232973    5.71389067611841
C        -1.83530732752981    8.57697704732790    4.22078053921949
H        -1.08632956606454    8.93617155461538    3.51958975495143
H        -2.50621468787736    7.86742845764808    3.71082820307785
H        -1.32342648558577    8.05882007091041    5.02688329060512
N        -3.23884352982803   12.47121731264813    5.06674889691354
C        -3.20023249541991   14.34457942296769    6.53564778086438
H        -3.76466252758918   15.15029097752467    6.97592500375713
C        -1.26469346026918   15.17559255033788    7.88507375953413
H        -1.75569376525171   15.07509509275325    8.85094150505233
H        -1.39593208264762   16.19867881021771    7.54020984321872
H        -0.20498815587879   14.96541765556238    8.00048217860298
C         2.59420149391505   12.27284990591173    3.01229293876778
H         2.81704343674837   13.00092730586495    3.78397580294011
H         2.84031950740785   12.71826143201926    2.05350618122972
H         3.25105739875884   11.42229588500993    3.15896631583684
C        -1.86658498008850   14.20322227942340    6.89115226662036
C        -4.02218512430478   11.63742634153201    4.17653152809242
H        -4.32681764386350   12.20970644703811    3.28770907510367
H        -4.94361031079075   11.30135484351903    4.67142517198102
C        -3.85227192388902   13.48435791155697    5.64043702167346
C        -0.35832776627907   13.26606422728260    2.85790729987793
H        -1.40594130357181   13.00034860342074    2.99442129658266
H        -0.25746353611076   13.72711685925140    1.88181088637271
H        -0.11606672394022   14.01291856024679    3.60728844797842
C         2.49978010113443   11.36386810699833    6.53465757539255
H         2.92735154120028   10.94102395821720    7.43863779265407
H         2.06966237597522   12.32752150148043    6.78709596064286
H         3.31162413459885   11.53434947503277    5.83658661951851
C         0.49645511001724   10.52717969910213    1.60510822658721
H         1.00252646621376    9.58380802054209    1.78300066437886
H         0.89629263445390   10.94402193605173    0.68630718529710
H        -0.55353524644428   10.31053096518020    1.43328444245411
C        -3.24892012497963   10.41172594142949    3.68904975566734
H        -3.96284396144682    9.74227624630845    3.17197338087956
H        -2.48694599960998   10.72495100660370    2.97051862514168
C        -0.10322766731018    9.85467284358568    7.18295341121827
H        -0.47530334973925    8.83777641417952    7.14951797658546
H        -0.95175147341936   10.53203058898925    7.09030494296517
H         0.33924719344186   10.00596278614483    8.16074004618963

