57
CSD_code = ILOLUS | q = 0 | S = 0 | Stoichiometry = C16H34FeN2O2Si2 | MND = 4
Fe        7.85502762588795    3.75497660373712   11.97047381085468
Si       10.42179380680233    3.82885008012047   13.06553399324753
Si        9.96198056596001    2.38067589678090   10.34280806747035
O         6.85509107266861    2.32934278455790   12.71462259522656
O         7.57995221574914    5.15699933852146    9.90405820246928
N         6.14384474184630    4.79570901951583   12.23994562257956
N         9.63126161745075    3.56659251592142   11.55551330840693
C         5.28842791370401    0.76626633264608   13.60188729166669
H         4.59661270600560    0.28658071445856   12.91252872217125
H         4.80763202146442    0.83765928356219   14.57431927517027
H         6.18496053520856    0.15808856079712   13.68331577221768
C         5.65655244618326    2.14402317228460   13.09062007718880
C         4.67518829880380    3.12474892094367   13.03416422632671
H         3.67466528347907    2.86908651905503   13.34176727662575
C         4.92863763010662    4.42348713632866   12.56984995492804
C         3.74954054011359    5.36955665224744   12.50818652572498
H         3.87923243084326    6.19373471934547   13.20994874810106
H         2.83817255807618    4.84137534831635   12.77080551129678
H         3.63338244033132    5.78252354296364   11.50751308398053
C         6.40980820722802    6.13082248579227   11.76228875965698
H         7.36120574962479    6.45761194350891   12.19348129786930
H         5.63511282998943    6.85036653333190   12.04494010258742
C         6.57595934206876    6.11362404278677   10.23036648951695
H         5.63912049764375    5.77433643241171    9.77239128857673
C         7.05617348358090    7.45852514070406    9.67702066433654
H         6.71024741281242    7.59056499317777    8.65114350263613
H         6.70599236767042    8.29626688954907   10.27617291868819
C         8.57460687044167    7.29377267504045    9.70515379020258
H         9.08409731179323    7.93344416393654    8.98829885978718
H         8.96337485662122    7.50170452500121   10.70168817549575
C         8.72808284230146    5.81209342016760    9.37361738404063
H         8.74494264365944    5.65835060830738    8.28574995370874
H         9.60883542076163    5.34972756044824    9.82083774793867
C        10.16533996400990    2.38429721696233   14.29078656189839
H         9.13154745673416    2.05699576206104   14.23085541396713
H        10.36883865547028    2.67294055275536   15.31719871820862
H        10.79705987986110    1.53532694449624   14.05548781116278
C         9.49982711274005    5.32933239058757   13.81795267634612
H         9.59931005332505    6.21844873249772   13.20424146881500
H         9.86631343947006    5.57260145007199   14.80865487923418
H         8.44083113990340    5.08549862271324   13.90792082951634
C        12.28319027913389    4.20525309339542   12.86308456629877
H        12.80345250974923    3.34435035860117   12.45903840622541
H        12.73845429045577    4.45101955262173   13.81626424446343
H        12.45240954898795    5.03779510088079   12.18917249402034
C        10.54180568078269    0.72103291476266   11.09211529555523
H        11.49269397083325    0.83314252010022   11.60194856797779
H        10.66534781486076   -0.03905449017202   10.32727602529076
H         9.81908484467910    0.35562240252767   11.81277565617680
C        11.32761245859720    2.96033059252812    9.12929219830150
H        10.99582982447710    3.77670169362501    8.49697886141247
H        11.63104096767767    2.14612654766107    8.47975567001500
H        12.20720308148634    3.29636412626591    9.66752046529042
C         8.30528687022842    2.10572657318578    9.44321612342065
H         7.50461865534162    2.06439870691426   10.17813908828801
H         8.29302118547692    1.18338961759135    8.87390540999813
H         8.07886402886034    2.92067046109221    8.76840556743872

