79
CSD_code = ILOPAB | q = 0 | S = 0 | Stoichiometry = C26H46N2O2P2Pd | MND = 4
Pd        1.03861311386200    3.62206563431373    9.44639759436244
P         2.86119611405134    2.93348195157009    8.31681813384664
O        -3.20294796646723    4.59984499531348    6.57297052551863
N        -1.82114301896972    4.25729128939090    4.81432682951050
C        -0.10317924639685    3.88415540557785    7.82952315948041
C        -0.96603240843783    4.08796866721670    6.99996145209536
C        -2.08684770136589    4.33545646184945    6.13951942361696
C        -0.54054308609355    3.90202635175452    4.24186385787603
H        -0.29816972629512    2.85533473955493    4.47174129263421
H         0.25652058035118    4.52982845009573    4.65120167358079
C        -0.74202604698498    4.10264866494623    2.74014488004843
H        -0.53068779642920    5.13820948382861    2.47027035986881
H        -0.10413721607862    3.45031393183331    2.14690158408196
C        -2.23125594495430    3.81093012029264    2.55463466340239
H        -2.40230596130505    2.73348022066408    2.54655517674634
H        -2.63459445738200    4.23635953495248    1.63815945240453
C        -2.84624893743335    4.43126536796963    3.80528427103235
H        -3.05188095662706    5.49966057570605    3.65907007670679
H        -3.77233613430971    3.95000128918499    4.12835618873594
C         2.79123010909685    2.96983430419988    6.46812081860206
H         1.98377763332401    2.28133502782960    6.19630765340001
H         2.45436779916890    3.97333203241830    6.18920602075199
C         4.07107113797356    2.61451366813283    5.72375184211643
H         3.86232475435360    2.51423264814256    4.65987975280228
H         4.48814966520548    1.67339016620970    6.07587560845906
H         4.82342186331014    3.39006165624318    5.84406727381263
C         4.41265629392023    3.80778839405003    8.76042195754346
H         4.70216608720882    3.46270251556670    9.75694756012183
H         5.21559647429273    3.56871784176246    8.06032551752809
C         4.11389398807551    5.30359087767457    8.79541276204568
H         4.96517175014378    5.86525530331049    9.17390930435342
H         3.25824495218743    5.47973326125190    9.46068910224451
H         3.86476778891255    5.67766223623729    7.80204942141482
C         3.16756859228616    1.16527955795682    8.72401167395192
H         3.74818447153131    0.66952436089246    7.94192534987539
H         3.73835046086497    1.14216540323213    9.65617904067220
C         1.81199860380658    0.48890058509334    8.92036090815621
H         1.92869030463746   -0.55014440626491    9.22335131524118
H         1.22882922954806    0.51750922543399    7.99779112172034
H         1.25305329219201    1.02105145483491    9.70778392962120
P        -0.78349943763102    4.31345228355743   10.57587706507353
O         5.28053189621242    2.64665829046728   12.31978224194133
N         3.89896673277607    2.98997691510260   14.07848391671151
C         2.18065838212223    3.36150263234678   11.06330737385496
C         3.04375305813327    3.15944424357612   11.89298591401634
C         4.16459763779911    2.91163539629169   12.75329291276629
C         2.61844852499066    3.34540477468709   14.65100946449787
H         2.37629282818225    4.39218379290277   14.42129753784952
H         1.82124106796625    2.71783752178246   14.24158242121363
C         2.81990994929308    3.14452254244001   16.15269204129666
H         2.60845973808992    2.10894769968431   16.42242121745055
H         2.18210347059418    3.79684805590817   16.74603463752690
C         4.30918075824835    3.43604577035054   16.33820262095566
H         4.48035121801289    4.51347596668622   16.34645798645159
H         4.71248690251972    3.01042911901732   17.25460257855555
C         4.92411988234366    2.81584119212005   15.08746385068064
H         5.12978379984541    1.74742910937921   15.23350389037829
H         5.85017197748306    3.29718493503393   14.76440281239423
C        -0.71354284964054    4.27690099765607   12.42457577607603
H         0.09395347746000    4.96532012857297   12.69644536215284
H        -0.37675551273956    3.27336228342255   12.70344981126695
C        -1.99335845067459    4.63222973360516   13.16898929339858
H        -1.78457501274800    4.73250642446766   14.23285457164204
H        -2.41043467369090    5.57335693124951   12.81688250597376
H        -2.74572981051598    3.85669719004205   13.04870518131805
C        -2.33493519363415    3.43904010502167   10.13233667111386
H        -2.62451725926520    3.78409853858924    9.13582644969966
H        -3.13783198035109    3.67814376075794   10.83246800508200
C        -2.03626022057008    1.94321005912845   10.09736216911733
H        -2.88754064321695    1.38152823627454    9.71890029256622
H        -1.18064310505951    1.76700630619025    9.43207524159361
H        -1.78711165956454    1.56916475151736   11.09072942143431
C        -1.08986033196087    6.08166381413914   10.16874788893409
H        -1.67043779085129    6.57735269170709   10.95090822903019
H        -1.66071739768643    6.10479893344183    9.23662722262267
C         0.26570108651761    6.75805565749224    9.97236299736182
H         0.14898008731516    7.79713347044304    9.66952857151690
H         0.84892282323518    6.72929711284885   10.89490385415380
H         0.82462757584034    6.22615338178215    9.18475147040507

