103
CSD_code = ILOPIJ | q = 0 | S = 0 | Stoichiometry = C50H46N2O2P2Pt | MND = 4
Pt        4.81615573547881    2.06481549978040    5.88574428400792
P         5.66940090027088    4.17543658431792    5.97894226027586
O         7.10636798320649    2.16029564355871    0.94966295498367
N         4.93513635134505    2.73500624249394    0.68145025237337
C         5.38048889364123    1.96697881727947    3.97398995145734
C         5.64738679729496    2.09442932226329    2.79832343813513
C         5.98925184194811    2.30940448210431    1.42376643351953
C         3.58044211676242    2.89051322241375    1.16721264746935
H         3.56170591882655    3.49576831836507    2.07793731926245
H         3.14585346248104    1.91048796704679    1.40909046461092
C         2.84504203076959    3.54834692587448    0.00014332966294
H         1.78763847579450    3.29148990833558   -0.01740836079763
H         2.94008094706270    4.63340328067963    0.06188391575435
C         3.60508475163545    3.02850558538657   -1.22015260011679
H         3.46461585961242    3.64925015747226   -2.10284992247326
H         3.28601680379275    2.01131048565136   -1.45143907715033
C         5.05052243404671    3.02657648446201   -0.73208114727941
H         5.67980240802671    2.27726555748690   -1.21803709355571
H         5.52046411808748    4.00877915697115   -0.87561093582968
C         7.10062703029573    4.01344870198043    7.08855759832323
C         7.66118992963441    5.07064642204520    7.79383664561335
H         7.25718088996981    6.06751879372097    7.68849055582175
C         8.72961009845013    4.83991826658929    8.64303736831907
H         9.16289452368796    5.66155426127870    9.19464198298164
C         9.24011195773329    3.56075347925315    8.79263205786564
H        10.07051249689314    3.38724382033040    9.46128612703870
C         8.68361289905356    2.50304240264368    8.09018179854543
H         9.07946098919907    1.50528705326982    8.21030447582018
C         7.61614655982427    2.72807993869537    7.24242070148872
H         7.15989940161498    1.90364220717577    6.68774173589678
C         4.76335725897438    5.61239912516818    6.63105350125911
C         5.17430765284463    6.90978120531177    6.33251481115478
H         6.01743551067721    7.07088949569756    5.67371772974545
C         4.49642142979732    7.98845934894508    6.86937692694139
H         4.81822638025751    8.99355209817518    6.63745077684131
C         3.40752518717811    7.78273262371223    7.70248571614095
H         2.88151976841288    8.62914246133878    8.11905745453581
C         2.99361991606085    6.49431628710833    7.99653633170648
H         2.14508526102091    6.33006740574898    8.64363209125959
C         3.66731540230574    5.41023411362212    7.46196411183205
H         3.35300005531000    4.40087024467213    7.69346856753875
C         6.35455045853301    4.80851560350886    4.41940459219282
C         5.46125047852461    5.34076796829896    3.49291024996911
H         4.42217484105260    5.46793550023176    3.77318598655777
C         5.89820474186769    5.69210190041305    2.23117516417388
H         5.20164097567488    6.10271099419100    1.51398418469512
C         7.22622468040674    5.50356687477292    1.88174331896340
H         7.56605557251545    5.75997191553279    0.88957320565750
C         8.11566241935639    4.97050918299949    2.79839427178096
H         9.14608202646371    4.81114052602169    2.51934126613652
C         7.68364779125161    4.61847802524557    4.06468460959218
H         8.37350259620619    4.18536768660876    4.77604585127666
P         3.96515618728586   -0.04679685946461    5.79457766758805
O         2.52492558618358    1.96763350751557   10.82115405572892
N         4.69658563766637    1.39510382768976   11.09035894137866
C         4.25308449730888    2.16268963406517    7.79783354605943
C         3.98491521928821    2.03485693323702    8.97321334495041
C         3.64231906546350    1.81929480695712   10.34747106377206
C         6.05152009856491    1.24007963130821   10.60522543299504
H         6.07080675306174    0.63517515129095    9.69428979975519
H         6.48610041141951    2.22026148881948   10.36394003312933
C         6.78631420560272    0.58193162219811   11.77248508219526
H         7.84376631487367    0.83853803500977   11.79047510561377
H         6.69102621357125   -0.50309045699557   11.71054614319297
C         6.02595718012710    1.10178508737883   12.99257458163196
H         6.16598668729983    0.48092949711817   13.87526573751046
H         6.34516046686340    2.11889137928847   13.22405943944357
C         4.58069641427105    1.10411608208435   12.50399460282182
H         3.95160423718612    1.85390403901805   12.98947769387405
H         4.11020782167253    0.12222773332456   12.64774012475633
C         2.53347823342708    0.11443285332361    4.68545863586349
C         1.97285142098628   -0.94314852917688    3.98079353520013
H         2.37696127456486   -1.93994187583822    4.08654514130047
C         0.90406088508524   -0.71293247342793    3.13190375734157
H         0.47066582442871   -1.53485758690209    2.58081379955900
C         0.39330256958352    0.56608735610231    2.98196315721068
H        -0.43729035715675    0.73921783255761    2.31344720955997
C         0.94982417774320    1.62416535277254    3.68383982475607
H         0.55381623701071    2.62182307397110    3.56342318855008
C         2.01762069763121    1.39964134751328    4.53131916033444
H         2.47392652454489    2.22439097773655    5.08545843696162
C         4.87163495939915   -1.48346265182594    5.14240585825738
C         4.46202237751745   -2.78111648256428    5.44157842228667
H         3.61952864508398   -2.94285005965016    6.10102876601110
C         5.14064842584765   -3.85933173491069    4.90468883530346
H         4.81997945900113   -4.86465545906790    5.13719737009585
C         6.22884892082460   -3.65288929706336    4.07085392731874
H         6.75531725804225   -4.49895490365315    3.65416692294339
C         6.64140779478823   -2.36419194612492    3.77613758921036
H         7.48928941493510   -2.19933527695746    3.12834440505590
C         5.96704921739427   -1.28058444715581    4.31081409202340
H         6.28027204867597   -0.27099398647125    4.07880199334221
C         3.28089378367533   -0.68018819147825    7.35440584835146
C         4.17484430256290   -1.21220421488215    8.28040353668477
H         5.21390404657580   -1.33860231865635    7.99971727570185
C         3.73856568167410   -1.56430430167586    9.54215252275568
H         4.43559521682952   -1.97498760211179   10.25884981134993
C         2.41055188804437   -1.37671865711697    9.89212530961499
H         2.07115403481905   -1.63404133466746   10.88420860750648
C         1.52052142399367   -0.84365060389457    8.97605940206787
H         0.49012308895765   -0.68496215646739    9.25556894806760
C         1.95185753947054   -0.49092070235564    7.70972724139912
H         1.26152497501311   -0.05767271591053    6.99891518952021

