62
CSD_code = ILOZUE | q = 0 | S = 0 | Stoichiometry = C25H32N2NiO2 | MND = 3
Ni        1.59222316249444    5.08879645504770   22.15211460598070
N        -0.57803238713514    5.37911162392036   19.85504766495863
C         2.67609598394003    3.73417961383009   21.74431498275679
O         3.51004020338747    3.09073688469824   21.29083812292760
N        -1.36333395206547    5.24258913655696   21.85694757208214
C         2.35268208980144    6.65632665963514   22.50907582803327
O         2.95377987425175    7.62655384559736   22.39802241393626
C        -0.20571378793682    5.24785686371729   21.14979907316821
C        -1.94050229620916    5.45436526487717   19.75976093171362
C        -2.43290903520745    5.37695910826347   21.01657001381033
C         0.35196660031347    5.34374228508290   18.72437455596809
C         1.54625071055845    6.25713173435519   19.01425786025784
C         2.54988454472504    6.18833089473364   17.86831532360329
C         3.03684078519739    4.74976313459651   17.70676761126483
C         1.84774608590914    3.84423977406463   17.39166615355027
C         0.84190923954954    3.90261263199268   18.53893010464452
C        -0.32088424302681    5.80538384771204   17.42898809767373
C         0.68869770573998    5.74899223057751   16.27971676053102
C         1.87782428418676    6.65788942616237   16.57973088647160
C         1.17633698505189    4.31189942561610   16.10117962229516
C        -1.42735033891789    5.21837580866414   23.31879618029848
C        -0.34372831525844    4.28413254832207   23.86808699567396
C        -0.36835125087320    4.29339334911314   25.39323710842045
C        -0.11999927213318    5.71407226365492   25.89637703833186
C        -1.21705463624135    6.63752548418276   25.36927983953468
C        -1.19135030693080    6.64117899517769   23.84242950498330
C        -2.79325805353131    4.72858317724239   23.81021556162111
C        -2.81645239162549    4.72488754670935   25.34052861700770
C        -2.57946883538054    6.14431618667000   25.85546397439725
C        -1.72967070259831    3.79889091789398   25.87959687664826
H        -2.47014811313391    5.56147941186454   18.83801050948152
H        -3.45046238344986    5.40358307425713   21.34244081977485
H         1.19740012772593    7.28240473517041   19.15720568735844
H         2.03040369452156    5.92769029331982   19.94763788319574
H         3.39973048036777    6.83896197405286   18.09877696946116
H         3.77144645315258    4.69272456125380   16.90105781129112
H         3.52070248476596    4.41982632179129   18.62778134232168
H         2.19457708123072    2.81237983684149   17.27191278930970
H         1.30591633499242    3.56625458053450   19.46901863094300
H        -0.01011385207247    3.25007403012619   18.33000820276724
H        -1.15893795748519    5.14989295833161   17.18225623790121
H        -0.69678060268070    6.82482571674660   17.54600804458494
H         0.19423565104950    6.08405148721294   15.36071387477015
H         2.58887910180893    6.62338635734257   15.75200606411483
H         1.54124934441520    7.69128037749545   16.68984298052327
H         1.88615578138499    4.26240505585450   15.27315746949575
H         0.33471150730157    3.65833155693618   15.85925019714858
H        -0.51217038961475    3.27088089679975   23.49334530210259
H         0.67573560099519    4.63189151502361   23.53719458405449
H         0.41735399099836    3.62925168213464   25.76921438308189
H         0.85640585818755    6.06234087961006   25.55024201164435
H        -0.11323829059180    5.72820430002927   26.98810718179406
H        -1.04495695973580    7.65623021805161   25.73311316552601
H        -0.22141159944461    6.99644888616601   23.48085109038286
H        -1.96286850563255    7.30921429448873   23.45035123588096
H        -3.58486656256466    5.39277968893530   23.45821090715602
H        -2.98883073775537    3.72406948311440   23.42645825138812
H        -3.79816235203167    4.37303887605271   25.67727041539955
H        -2.61006652896116    6.15176567151455   26.94680652543678
H        -3.36776618615777    6.80964429347363   25.49501130504552
H        -1.90163810254098    2.77706162020061   25.53315706325554
H        -1.75600281908587    3.79080824657631   26.97105118085749

