77
CSD_code = ILUDUP | q = 0 | S = 0 | Stoichiometry = C28H38N8NiS2 | MND = 6
Ni       11.48174391987973    4.06764861129262    3.76813997062979
S        11.56589635734019    2.58409754977545    1.80035465800846
S        10.80510452014993    2.41432919233539    5.51897929345889
N         9.27167809346076    2.34104316994455    0.50316067102244
H         8.33186930049504    2.66364983264026    0.32650027868327
N         9.21430726723990    3.82623412005817    2.20222808846777
N         9.78110572986658    4.41574071201405    3.23601904439095
N        11.02853868202957    5.65804231101630    5.20368700644429
N        12.78118971694456    1.16391662692106    6.66887114406617
H        12.00950622640166    0.74881508022525    7.16795227524164
N        13.45933863188871    2.79248037968535    5.22186532748164
N        13.17703188830249    3.69708028528894    4.30622216495851
N        12.54595716823054    5.59671797795259    2.57525209118538
C        10.45424096783645    2.26802483617178   -1.64845230778013
H        11.19741794330610    2.97142711980916   -1.26924715239931
H         9.65127386186148    2.83983193475097   -2.12127822598332
C        11.08815315435390    1.32640014192737   -2.66633437962478
H        11.92345045889281    0.80317951999190   -2.19688232912443
H        11.48164773607956    1.90184378829013   -3.50668146071578
C        10.06599447352038    0.30860317335883   -3.16304026246543
H         9.25626425223152    0.82943701540413   -3.67988123836491
H        10.53481775758505   -0.37146246782648   -3.87693595251366
C         9.49292364571794   -0.48381910997847   -1.99197422884179
H        10.29432476680837   -1.04743831802087   -1.51012955598673
H         8.74925957173253   -1.19777929109190   -2.35181292842934
C         8.85464800408300    0.45405913907419   -0.97143491192179
H         8.02004641525147    0.98531425613206   -1.43747807145065
H         8.46421044954848   -0.11659925719766   -0.12689952879114
C         9.87954996198834    1.46945740223497   -0.47215241401803
H        10.70052431235125    0.95081233782470    0.03490258233628
C         9.92717823827064    2.95673302099916    1.50492960532304
C         9.07312749142662    5.27641089632893    3.92769244411595
C         7.64679168332117    5.57910337308536    3.57810757839349
H         7.41081500055581    5.11302005949024    2.62564989866831
H         7.48820872382132    6.65406770258662    3.50683619528672
H         6.97737453753184    5.17761047310233    4.33847571330391
C         9.70880876994841    5.90363760659075    5.05947210732800
C         9.02248062784875    6.70659614196505    5.98135583017285
H         7.96704048849916    6.88876314552513    5.86143381009473
C         9.70881527187470    7.24352486734586    7.04949094522719
H         9.19717222561873    7.86187671600802    7.77300097532304
C        11.06519693513873    6.97514253360094    7.18646894054759
H        11.63467713903186    7.37748562434218    8.00901498560088
C        11.67367549211108    6.17479353901977    6.23403061017211
H        12.72955878693030    5.94283705053993    6.30155696202538
C        14.53815689384679    1.77652635046795    8.27717793636497
H        13.84325521204793    1.62924374306782    9.10760383896662
H        14.46948593932214    2.81855013687462    7.95980335181258
C        15.95751447767705    1.44761965454006    8.72785864070528
H        16.65191846022585    1.64665848981660    7.90842923976890
H        16.23706741794859    2.08767850831009    9.56717292535580
C        16.06176275658625   -0.01952451046401    9.13347083039039
H        17.08478904991342   -0.24988282073685    9.43722635091927
H        15.40869641012871   -0.20595715221996    9.98921373875790
C        15.64858999546130   -0.92252152954070    7.97500328647361
H        15.70599777726988   -1.96942073527858    8.27950667030974
H        16.33750110554922   -0.77829533314536    7.13987161998625
C        14.22893072528800   -0.59623851345798    7.51978706291637
H        13.94730409736343   -1.23057081837496    6.67743816701254
H        13.53043614892630   -0.78951988827475    8.33821918267981
C        14.12471225105016    0.87101063006829    7.11056790862789
H        14.78310592263794    1.06786189009733    6.25770413567977
C        12.46691508217134    2.13665475250277    5.79437618313524
C        14.17353433316081    4.34758143870740    3.75416469108753
C        15.59553350321452    4.07398376137959    4.14489513504314
H        16.10693015946691    3.52247432269244    3.35607326280956
H        15.60263504460757    3.47217460631724    5.04963450326691
H        16.13098506784527    5.00487988235199    4.32299657226843
C        13.85682923020896    5.31725258071026    2.73462745573184
C        14.82613650797488    5.92975825338260    1.92772218819168
H        15.86911944954186    5.69012276672839    2.05585984708475
C        14.42735646706649    6.82470270574067    0.95784372628497
H        15.15829228137223    7.30476199874122    0.32302400283906
C        13.07364444541770    7.09668164176942    0.80316962403944
H        12.72456328155825    7.79093106011602    0.05547102764403
C        12.17674282604881    6.45205967415635    1.63894096415204
H        11.11262103176635    6.63507163246742    1.55310968010524

