28
CSD_code = ILUMOR | q = 0 | S = 0 | Stoichiometry = C11H9NO6W | MND = 6
W         5.21144899152022    1.54681406106969    9.17604333713687
N         0.63348989575939    1.60981270813925    6.00057587576541
C         3.78650042229385    1.61256023702131   10.57463683299133
C         6.61769139240259    1.50861684469465   10.59416499032121
C         2.85909627670186    1.60725629649253    6.82144669924705
C         3.73521997764043    1.58687950280101    7.68497665636243
O         7.42090431800139    1.48973469316397   11.40845995627244
O         7.41248535939820    1.45613017529410    6.93447082958634
O         2.97588809798030    1.65357415171497   11.38235023778937
C         5.13118646139906   -0.45254608421865    9.18514307711134
O         2.33810299884739    1.67643343990266    4.50792379220909
C         6.61015903521595    1.48672324518078    7.75081486628398
C         5.28004429405232    3.54626663698927    9.15153590200326
O         5.08458890100483   -1.59589701322011    9.18741444842507
C         1.94878508261049    1.63117206135345    5.78843634108561
C        -0.32896637821177    1.63175527310527    4.92803751741208
H        -0.95192102994046    2.52573408308603    5.00524012338494
H        -0.97350137066541    0.75250746753923    4.99240448543034
H         0.18184639433379    1.63293857912228    3.96950218053396
C         0.09187936203805    1.56983516604333    7.33606059879060
H         0.90342453727642    1.56938434001084    8.06136436585191
H        -0.50935219351544    0.66787820967281    7.46770501574863
H        -0.54350901759497    2.44138609737301    7.50597727006966
O         5.32096692923770    4.68981726926814    9.13574981813191
C         3.73566633448076    1.69476659066168    4.26970115645764
H         4.19994837686334    2.56288534586926    4.74301594974517
H         3.85144908657253    1.74582940449137    3.18954223067236
H         4.20847746429519    0.79055121737655    4.65970544518191

