62
CSD_code = ILUNAF | q = 0 | S = 0 | Stoichiometry = C22H25BMoN6O7 | MND = 8
B        -1.70631665559974   13.48350384144303    4.81105136821304
H        -2.32467211100102   14.27670426033853    4.19127611581723
C         0.23893866881754   10.78831163234704    3.46565508895600
H         0.73559993856499    9.85309187338769    3.64864553968243
C        -0.01151813954658   11.41328937068433    2.24776006187688
H         0.30675105232171   11.09076106157975    1.27900145854211
C        -0.73167965849125   12.54206756863676    2.58385787447426
H        -1.14538117429733   13.31284207935018    1.96530282531334
C         0.59359733249497   14.30317725632944    7.45691425240632
H         1.27318403105629   13.98885755949396    8.22608121494730
C         0.17670132546867   15.60262778092183    7.17677227337068
H         0.47101904555595   16.50529399558294    7.67079441619780
C        -0.69907778077455   15.45758456042344    6.12363428300010
H        -1.26215514533217   16.18864911738171    5.58045535624646
C        -3.04990890514889   10.91890788386817    6.95671772633802
H        -2.84668217610727   10.09342232414447    7.61286694698585
C        -4.27323139342013   11.47748948882420    6.59425940765980
H        -5.25089624202409   11.17307258144897    6.90527019810318
C        -3.94298644562480   12.51209284617347    5.74232977603731
H        -4.56622104804209   13.21222974781453    5.22346090732664
C        -0.10489077178575    9.34472134042625    6.36110242669535
C        -0.27361249789216   10.97283309106668    8.41667537398390
C         1.84983384063419    9.82227374991951    9.10985100493006
H         2.92552191110189    9.85754122603437    9.28215965451593
H         1.62141492783043    8.97246969438648    8.46929793388116
H         1.34583466169671    9.66980577547246   10.06362529102736
C         1.37355244514794   11.13527346832435    8.48659743955639
H         1.48948477355100   11.94129711778041    9.22398664064458
C         2.05349027232933   11.52312452237845    7.21501199208208
H         2.65742637912712   12.42809336915746    7.16277997299806
C         2.18651951507791   10.54305465851050    6.21823322845182
H         2.46999586780058    9.50737696405122    6.40429701684393
C         3.33467754544012   10.17875637130344    4.20537268194297
C         4.41145164524387   10.09813424681177    2.12288003250135
H         4.35982541976615    9.03327314297250    2.40113935599639
C         3.70131669813513   10.26469441187603    0.77049792144430
C         5.93045062680788   10.08277048324643    0.32514891367955
H         6.59803156857874   10.70547332819178   -0.27225094125552
H         6.23079790712765    9.03344337364584    0.22699713705795
C         5.85981961816823   10.51277976567396    1.80197939612116
C         6.88613111985215    9.79622499980234    2.67046406932432
H         6.77377870288757    8.71670452473833    2.59988650910477
H         6.75741386023333   10.08631842934316    3.71030306694338
H         7.89360480851500   10.06264322144656    2.35973168631390
C         6.00821596181810   12.02994419202544    1.91703865148098
H         5.80926104670625   12.34968449945220    2.93611959973623
H         5.30069106921676   12.53228690607812    1.26102732287725
H         7.01784227725374   12.32850081744566    1.64474172409887
Mo        0.04849658482601   11.26314888690778    6.50356651588092
N        -0.27838266352510   11.50512812254945    4.45684335925443
N        -0.87489886354071   12.56697232023119    3.91543224036807
N         0.01442090332455   13.44386192000382    6.62868655948071
N        -0.77477390777537   14.15380772618961    5.82126454921024
N        -2.06428991254842   11.57814572649097    6.36281012244811
N        -2.61025521968423   12.54582849096960    5.62525169137275
O        -0.13661097501799    8.19756283406553    6.35209797286867
O        -0.90526532882439   10.73282390676019    9.38653696401175
O         2.80284630069342   11.04575681340066    5.04712444692999
O         3.41675940809285    8.99071303788640    4.35151784335680
O         3.80046277802267   10.86002286974617    3.14214921571556
O         2.53109608607738   10.39163226790333    0.57779931017115
O         4.61664909027885   10.23062055539223   -0.20128298564355

