129
CSD_code = ILUNIN | q = 0 | S = 0 | Stoichiometry = C53H72MoN2O | MND = 4
Mo        8.94537991245652   22.97245949715955   10.06629067784920
C        10.19287919785908   21.90419320420791    9.02459733681232
H        10.36288605325714   20.84139944931849    9.19498137880054
H        10.81332787862226   22.24649331922729    8.19810844768132
N         9.35120430427301   24.49432183603374    9.31605201608125
C         9.70145607372066   25.71140374603166    8.84492450233146
C         8.91195781717653   26.34983342062708    7.85731327532483
C         9.26786711278648   27.60707186190643    7.40385771336045
H         8.65359256982838   28.09597770649203    6.66207587271400
C        10.39837424741643   28.24903953088312    7.87450477548061
H        10.66191570645656   29.23029541396236    7.50807564576156
C        11.20028590855921   27.61367293387434    8.80491894743061
H        12.09950992959736   28.10425635363957    9.14628563561084
C        10.87310428614534   26.36510090611017    9.30168603621477
C         7.69447147073018   25.65433462980129    7.29622616088317
H         7.68009481834032   24.63205953113810    7.69355280640769
C         6.41696352044124   26.36857973445193    7.74133089071262
H         6.38848804733793   26.44227340477492    8.82609354830911
H         5.54241506598343   25.81413612301055    7.40855975524236
H         6.37254413453924   27.37365650675541    7.32657533552399
C         7.75554473434868   25.55325311844376    5.77114328907520
H         7.69988699602795   26.53441011338654    5.30540550206747
H         6.92247741858579   24.95420881459512    5.40982668121707
H         8.68346325448538   25.07606503446888    5.46452814988465
C        11.78874001586006   25.65345800946324   10.26717952897877
H        11.19519753558184   24.86934203155576   10.76420336003499
C        12.90505338731386   24.95973015648316    9.47973612724208
H        12.47375330420985   24.22114149168212    8.80707012788048
H        13.59781579411198   24.45880577239026   10.15350066268091
H        13.46044631855022   25.68737215717518    8.89145932121367
C        12.37346749160922   26.57610004749838   11.33626776803970
H        13.11622150783094   27.24625530528128   10.91066902103519
H        12.86122475547197   25.98765987002219   12.11119174058542
H        11.59077913414531   27.17669707991828   11.79445567709398
N         7.22750004447609   22.64190643783138    9.09226511689493
C         6.83391517464342   21.89238783728771    8.02669637194975
H         7.54073179123616   21.25372662082216    7.52141589064468
C         5.50932225054266   22.11801621464151    7.75676746612551
H         4.92545220540140   21.66552587733853    6.97868449037303
C         5.06236701183718   23.06393605093580    8.70471264343997
H         4.07157127030774   23.46867290714348    8.79084524661670
C         6.13949667012754   23.36055468260501    9.49693866347371
H         6.21415369556973   24.05666415383005   10.32271862418457
O         8.65078454147419   22.06961641694804   11.56543237620207
C         8.49391440952705   21.46155635141072   12.74122494214771
C         9.36431664303843   20.43073355977980   13.13436589606187
C         9.20804921797491   19.84051867256128   14.38070964293103
H         9.88634215918664   19.04978259699688   14.66716936368531
C         8.20412552508276   20.24927029069228   15.24033260683242
H         8.09964515120918   19.78878832510565   16.21084825293654
C         7.32139213946679   21.23556857116648   14.83976240960131
H         6.51409224467651   21.54492945247882   15.48756699930178
C         7.44546823537975   21.83974723773451   13.59647594108390
C        10.42597362049112   19.97310678978361   12.20404873013416
C        11.71146451153308   20.51653025170241   12.28929918219171
C        12.67784723958787   20.10325765311132   11.38711072151849
H        13.66358926490784   20.53756448645361   11.43287273389858
C        12.40548459948728   19.14172629181783   10.42473904806604
C        11.13654035072432   18.58647750146418   10.38372047315943
H        10.92129185017068   17.83147731864902    9.64153981222683
C        10.13617356328046   18.98656968299783   11.25923941125980
C        12.01804997427044   21.56382422849799   13.33714966115726
H        11.27254214793289   21.47697004995837   14.13573983124691
C        11.88874497835453   22.95338120995567   12.71039921903622
H        12.64630730349305   23.08761401903305   11.94117329790029
H        12.00850468521016   23.73035002591213   13.46347643663342
H        10.90143012847125   23.06590464776123   12.23791509069482
C        13.39847760364433   21.38640872881010   13.97048673405011
H        13.53109795018555   20.36238478569831   14.31185118999533
H        13.50069515076279   22.05094754455912   14.82598069638704
H        14.19238749481763   21.62359761035656   13.26712060544505
C        13.46066558452224   18.71317160473351    9.43487927511787
H        13.02619107120552   17.94694725656160    8.78278844733155
C        14.66608489205974   18.09882415858203   10.14933780452174
H        15.15719555907507   18.83320333595208   10.78281984547630
H        15.38946964487290   17.73568901554874    9.42249545002238
H        14.35217658812210   17.26391243175482   10.77236516395793
C        13.88804860141368   19.89451021685799    8.56110614085444
H        14.36209992857295   20.66787099931738    9.16019910917951
H        13.02384704256059   20.33037155019084    8.06520603798183
H        14.59524015681585   19.56604345095671    7.80247179635094
C         8.75456735277813   18.37806752733474   11.17092553552852
H         8.17700306066403   18.69930019277200   12.04471776934793
C         8.80625141404661   16.84919253508373   11.18644867614562
H         7.79804013383156   16.44479286274689   11.24628142379890
H         9.37102939903375   16.49730120967919   12.04719805843506
H         9.27276003767257   16.45968044410428   10.28550640276054
C         8.03936479395764   18.88752980971204    9.91725341191593
H         7.98212262519652   19.97913513946354    9.93132127330183
H         7.02911315452253   18.48724862587124    9.86613022562556
H         8.57534912460235   18.58592331545696    9.01986928329764
C         6.44307708575956   22.83697885116761   13.14549942166224
C         6.71206102608838   24.20598085745523   13.23362066664470
C         5.73078047540675   25.11223503300300   12.85672695596237
H         5.93472952685437   26.16958798645429   12.93259207538562
C         4.49292290488552   24.68986686146602   12.39437177113442
C         4.25200798328821   23.32784470854548   12.30384489710616
H         3.29409026382682   22.99155701955659   11.93617943405564
C         5.20503870811213   22.38987885002271   12.67205572159856
C         8.03099326618390   24.70484071190729   13.78367300017148
H         8.67965040227684   23.84112280910042   13.98039987015467
C         7.81023252043136   25.43198827613112   15.11258172810832
H         7.17800017831462   26.30583550307839   14.97585412537765
H         8.76214139302015   25.75768563549905   15.52683453622651
H         7.32933106606236   24.77016372225051   15.82972342830215
C         8.74082432592501   25.61278536367139   12.77695456076631
H         8.84304057613352   25.09878590465832   11.80887851349452
H         9.73293009274205   25.87609452459081   13.13854518091556
H         8.18410321586471   26.53280110118543   12.61419191019524
C         3.42705232903815   25.68167716909533   11.99807836450793
H         2.53780283837235   25.11920436289460   11.69211272715837
C         3.88581953963973   26.52715719379077   10.80849475577084
H         4.75386125703913   27.12758939905338   11.07064690693402
H         3.08962391131595   27.19858140152196   10.49428197849900
H         4.15182334631431   25.88782321790403    9.97011275381608
C         3.04071548128966   26.57038267694088   13.18245878456246
H         2.72798925300824   25.96114711476077   14.02803779910651
H         2.21914253053156   27.22784863178721   12.90657981023351
H         3.87985202199933   27.18674719420678   13.49559688399384
C         4.89624998403357   20.91451624226649   12.55429986598577
H         5.74425863002496   20.34422493827717   12.94777901719211
C         4.71209982527577   20.52297946304819   11.08731971562116
H         3.86960159072307   21.04742323249103   10.64430146718524
H         4.53536039191424   19.45243851091386   11.00394284730035
H         5.60280946851250   20.77407314447949   10.51423853451793
C         3.66244340406492   20.54327608378664   13.37973607461674
H         3.79491309165366   20.84289491367462   14.41738096957138
H         3.50344769357350   19.46744636177103   13.34936431631317
H         2.77092573273847   21.03006614923852   12.99314396374486

