47
CSD_code = ILUTEP | q = 1 | S = 0 | Stoichiometry = C20H21CuN5(1+) | MND = 5
Cu       11.65648719706215    2.43299320194033    0.86151217956961
N         9.89802099856888    3.63258690632275   -0.07673875980958
N        11.27991430575304    3.95033320523849    2.23971568827466
C        11.75308041275911    4.07904302400930   -1.58221690585149
C         9.78001096980371    5.61171130952677    3.03552302611936
H         8.83313606051453    6.11966496660621    2.93830007693141
C        10.12063151131748    4.59669674895220    2.14927870070528
N        12.43356488660920    3.13831691864656   -0.93127193845956
C         9.17339889673044    4.16211466056737    1.05987658034932
H         8.54930529448275    3.35980139555472    1.46681047638438
H         8.51046677937408    4.99705555894080    0.78359830267443
C         9.14256414412292    2.66699003811445   -0.84921203730702
H         9.66610250452481    2.50654994476202   -1.79731940448398
H         8.12601030359057    3.02039296479000   -1.08192977855045
C        10.54316776568257    4.64820179794571   -0.88505845573778
H        10.88790441243968    5.44504216000236   -0.21812680803084
H         9.85885372090937    5.09651712880638   -1.62189203972472
C        13.51263676225144    2.61150482098047   -1.49310653910059
H        14.01533797688190    1.84492656284309   -0.92068532427670
N        10.11063599480682    1.01359602157821    0.63298897730455
N        13.00577896812191    1.19618676356124    1.71206584996781
C         9.07655367381273    1.33901878427693   -0.13611072207389
C        13.97783960834191    3.00337840271337   -2.73623905435884
H        14.85903487621607    2.54928087990900   -3.15898301797335
C        12.14948292886634    4.53206001327060   -2.83411528681279
H        11.58003634333243    5.29705942165053   -3.33872473899393
C        10.66874531192999    5.95602027883827    4.03990092024958
H        10.42672042777325    6.73986976906775    4.74078268072497
C        10.11494247081392   -0.15490009825239    1.25754105637388
H        10.98451783399882   -0.35729118289356    1.86634155981944
C        12.13412493819732    4.28200016555290    3.19772474824266
H        13.05923559003747    3.72352730801341    3.21749587160960
C        11.87569637715606    5.27711906660666    4.12333051177131
H        12.59733186308214    5.51613774663056    4.88723836882349
C        14.07433411188503    1.17609761436673    2.13619645345058
C        13.28092899049213    3.98856792561679   -3.41997623172691
H        13.60851611388896    4.32320840991758   -4.39209335251581
C         7.99464165460456    0.48382928821123   -0.30595108981328
H         7.16834868725996    0.77258246780739   -0.93693770588089
C         7.99750897950058   -0.74006867759395    0.34273028654593
H         7.16949675057410   -1.42232403463438    0.22650456235712
C         9.08084590512405   -1.06809501386271    1.14396940452166
H         9.12128976452475   -2.00907855501860    1.66778709518903
C        15.39826220948842    1.12213108239380    2.66880104562273
H        15.88117466383534    0.19500197999523    2.36078304430582
H        15.35683477657110    1.15445233225181    3.75714158791015
H        15.98184528237923    1.96768852547970    2.30495013568655

