75
CSD_code = ILUVER | q = 1 | S = 0 | Stoichiometry = C36H33CuN4P(1+) | MND = 4
Cu        8.83615592046676    3.65204841169496    1.79697586965489
P         6.88794935412902    4.63635636131139    0.97556713593348
N         8.28253062762943    2.48553082573386    3.47912018451756
N        10.09161578711481    5.30607579499907    2.30044331164770
N        10.82901786992838    2.73073788688500    2.63742985080942
C        11.86705318292534    3.66774757165128    2.26180595012896
H        12.08061136209567    3.52839247631593    1.19695025090887
H        12.80370941021015    3.50389191417157    2.81835554657379
C         9.21953708630392    2.18663408581315    4.37293709812342
C        11.39305958848745    5.08423250545536    2.45456823752022
C        10.42991464948277    7.61740812217456    2.75066372619147
H        10.00537341709631    8.60159295657123    2.86257145666092
C         7.03015601624493    2.11364259569066    3.70311594642712
H         6.31333680031977    2.36972087173304    2.93375355826113
C        10.62275400037535    2.64203516253364    4.06801186023086
H        10.74847834134123    3.64294395029215    4.49341845305471
H        11.35005051179494    1.97487386444599    4.55746465410911
C         8.92036775447896    1.50298313981753    5.54569696681197
H         9.70196237520969    1.27484207936272    6.25369374523399
C        11.79102157945387    7.39849734080004    2.90529354114732
H        12.45821618028571    8.21343338039816    3.14024696414811
C        12.27931076876949    6.11086075238420    2.75810231136540
H        13.33126660487715    5.90132119157405    2.87501970830603
C         9.62137818358029    6.53605274708738    2.44790925556510
H         8.55347606411122    6.65556705959147    2.31813215057554
C         6.64219432488930    1.43181170131518    4.84293939858014
H         5.61212002002720    1.14870081383866    4.98547315972974
C         7.61059804864307    1.12423670653098    5.78759611118298
H         7.35158832769357    0.59460103801413    6.69139286052364
N         9.61683875992455    2.43241008826460    0.24348610840059
C        10.53548530631572    1.52216232309869    0.55010976072877
C        10.96087851321071    1.44072216599784    1.99308454259369
H        10.29189079659093    0.73639076893274    2.49796794177921
H        11.98479907923074    1.04012427384273    2.06162670748223
C         9.19530366661461    2.53225433365006   -1.00914200260449
H         8.45331118388143    3.29640116471428   -1.20176961288734
C        10.61935210346894    0.76212517726916   -1.71584709331253
H        11.01297530231167    0.10754547373255   -2.47808509408269
C        11.06393383218867    0.66483862311014   -0.40799576985956
H        11.80833152354274   -0.06507703503632   -0.12968960865154
C         9.66456334312216    1.71976726301863   -2.02600184981000
H         9.29393120790709    1.83491082233414   -3.03133817007222
C         5.46411564315331    3.52613146922646    0.70116069069529
C         4.14052656366244    3.92074042516604    0.86943459744200
H         3.91123410496943    4.92755132148261    1.18946756304087
C         5.74921039526555    2.22090255292391    0.30631786124298
H         6.78312822462355    1.91515691477607    0.20500773006842
C         6.12502649659101    5.95387543135627    1.98482074218076
C         7.04422433598991    5.44955321845543   -0.65259536258412
C         6.01607347162940    5.50288425310772   -1.58825004495399
H         5.06237645433737    5.04189293652369   -1.37404351110437
C         5.67251254805563    7.16364705710535    1.46834056607680
H         5.75514001180082    7.36800295874685    0.41011834015818
C         3.40572269735939    1.72777693596708    0.21957881417780
H         2.60359225096909    1.03112949307448    0.02971910715615
C         3.11781233499101    3.02045692165424    0.62673016738211
H         2.09146809048367    3.33066461402550    0.75404543724778
C         7.43819098925587    6.74083017961920   -3.07748038962559
H         7.58761935664407    7.24560284137923   -4.01966419875080
C         6.03178956464082    5.71164596149253    3.35464616716517
H         6.41213557419876    4.77948977533849    3.75262797130693
C         8.46878970107412    6.68031984210800   -2.15239127838392
H         9.42263094571856    7.13539633472161   -2.37403428293004
C         5.00472943158275    7.85355943503344    3.67106344102577
H         4.56419210981484    8.59141713049502    4.32387339405468
C         8.27506916071154    6.03241281336675   -0.94676760787655
H         9.07706877546878    5.96074761796627   -0.22274627133655
C         6.21753068956015    6.14898607890572   -2.79550626525207
H         5.41662259696168    6.19265571531492   -3.51829928395333
C         5.11340578931359    8.10679823947480    2.31355197512164
H         4.75795575227531    9.04254851120174    1.90810474701760
C         4.72337816103141    1.32720363443978    0.06162289394433
H         4.94890388931848    0.31748901942225   -0.24790565606807
C         5.46742759764455    6.65460771391440    4.19212270299763
H         5.38939751467531    6.45877390112458    5.25107411966616

