50
CSD_code = ILUXAQ | q = 0 | S = 0 | Stoichiometry = C12H25B10IrS2 | MND = 7
Ir        6.77642759327192   11.38199142107209   22.38175743774799
S         5.80520037756274    9.32318964433296   21.97916025255794
S         5.63229954250251   11.70407486548237   24.36837920265535
C         8.46952451840994   11.42555936805998   20.91471889285817
C         7.18821433761322   13.30480719058457   21.34788711734767
C         8.12860905881522   13.17510267297846   22.40676927934144
B         4.56606502358560   10.19202272255277   24.65980188818629
B         4.65549699684889    8.94762415225237   23.41047564986294
B         3.06895056355005    8.13834422434068   23.31454828319058
H         2.58440731242960    7.58287566132913   22.40206364988795
C         7.40985725235245   12.22434348311801   20.41483709586797
C         8.89869946937756   11.99221869603836   22.16716434044587
B         4.19996186824584    7.64548837381010   25.92159139872131
H         4.32970432348125    6.82398908969021   26.74880849148077
C        10.08954932299456   11.55195580501901   22.95683246431286
H        10.98423832738874   12.06267504992795   22.59448769534597
H        10.24646015770771   10.48038367625241   22.86044331802647
H         9.96481149765753   11.78494244004409   24.01158477145552
B         4.26472385464656    9.39021972776486   26.22411391537887
H         4.53620287475684    9.76393471074257   27.30236370543570
B         5.34910717916468    8.60883558321086   25.04463786994853
H         6.50924478879843    8.52982395870390   25.20605578059634
C         9.11099148429354   10.29151593699148   20.18215519620498
H         8.35412523322567    9.64398512169097   19.74467040199015
H         9.72717730487765    9.69353514316449   20.84758782942039
H         9.74183108435625   10.67449430149276   19.37786114792317
B         2.92311593257203   10.16808147149765   25.35348109542427
H         2.33576701150938   11.03965748356588   25.87440317331772
C         6.77573314987282   12.07659677912052   19.07002214343580
H         7.40906640395443   12.53527535127462   18.30792187689822
H         5.80209740023460   12.55878219128175   19.04056053126073
H         6.64866395684675   11.02585694269641   18.82029315021538
B         3.12925195785085    9.89667381424968   23.60326964780064
H         2.79716997235798   10.68279239139578   22.79715135480964
C         6.28415737583263   14.47615743520632   21.13954958012243
H         5.96661221007477   14.88663650009197   22.09475952108138
H         5.40038570409704   14.19481704051064   20.57205520729199
H         6.80989523380955   15.25761249014657   20.58680589863465
C         8.33045020258882   14.17572067076738   23.49978931068839
H         9.10229495465999   13.84728792172385   24.18996389997248
H         7.40903598209961   14.31815838837857   24.06278564085467
H         8.62730995446780   15.13677925999255   23.07721559885307
C         2.85629137287982    7.47674248895171   24.86736749634255
H         2.24512950121166    6.59730480114319   25.02313449373199
C         2.77583679243944    8.59984295428217   25.99534633976765
H         2.11607774142453    8.39509253048240   26.82841541527954
B         2.00420295475984    8.91898878007087   24.49589098401916
H         0.83317677225343    8.85218434528284   24.47921210828533
B         4.41012700976170    7.36013720422296   24.18550747631952
H         4.78446910452453    6.30678774301709   23.83024097940201

