84
CSD_code = ILUXUK | q = 0 | S = 0 | Stoichiometry = C30H40B10IrPS2 | MND = 8
B        -1.41420264040027   -1.14773465858278   11.15677753195974
H        -0.62151558395611   -1.54783697255787   10.38882857248550
B        -1.16438309005654    0.23613014796563   12.23090010906543
H        -0.17185074343743    0.85569947796340   12.13190382590633
B        -1.74946461656700   -0.19451823455504   13.85847947419828
H        -1.12438140798557    0.14873512365273   14.79079957498324
B        -2.36752923820463   -1.85287350718472   13.81090134045983
H        -2.13668921673644   -2.67596856861435   14.61516868582200
B        -3.73625732995538   -1.89629522271384   12.68916832088835
H        -4.52668958157169   -2.75791413621594   12.79258876885300
B        -3.49025424030767   -0.52646093853899   13.78625439767547
H        -4.21722571854105   -0.31232193704685   14.67927256022969
B        -2.76369138540432    0.81515597166154   12.78991992566173
B        -2.52464481818235    0.19073792070190   11.09858925272339
H        -2.58978896012160    0.89725307050809   10.16785690619503
B        -3.15307255304948   -1.46164307878035   11.06460396321464
H        -3.57436513193460   -2.04670033689161   10.13761180201105
B        -3.99450794621997   -0.24007434831422   12.07100443382060
C        -1.06182927237426   -1.35632595102053   12.81926601845639
H        -0.10577300486341   -1.81304027658277   13.04094416943669
C        -2.16859895772473   -2.30324430121310   12.16851867125831
H        -1.88339959105523   -3.33329273082008   11.99701393516002
C        -4.05756104513527    3.78536018951384    9.93695733524592
C        -5.09392189405987    2.96231294817121    9.44384145762100
C        -6.34803368729455    3.52119861310546    9.87502588715025
C        -6.07592592002964    4.73130261466146   10.57537216510933
C        -4.66197769470545    4.87020048352533   10.66303049600458
C        -2.59581206135935    3.73531147445050    9.62384720479963
H        -2.28863597556063    4.67300870515726    9.15812276411525
H        -2.36242323172950    2.92073870184360    8.94353896498247
H        -2.01024521690116    3.60234932239481   10.53366414523287
C        -4.99070947414396    1.80867437499851    8.49932352264525
H        -5.59366493271628    2.00510114463713    7.61222654894232
H        -5.36266615041288    0.89561366317601    8.96613595145543
H        -3.96241807510317    1.63982321727203    8.19109819534786
C        -7.67980392133770    3.04019633766447    9.39665483813208
H        -8.48684187722527    3.43734542078048   10.00758982323555
H        -7.72440461990261    1.95401247904206    9.43229817290920
H        -7.84352293470337    3.35571292372532    8.36359302990905
C        -7.07834177712363    5.75131224187844   11.01504719668350
H        -6.78790958742907    6.20841758680566   11.96007060744788
H        -8.06229876901257    5.30524505086802   11.14025770623246
H        -7.15414623685791    6.54099118018247   10.26448877718221
C        -3.90910513336470    6.08180574764824   11.11384122238887
H        -3.01935517067605    5.79873873940065   11.67309654511836
H        -4.52791322025145    6.72551167457586   11.73358657686771
H        -3.58763301992243    6.65791551035444   10.24320555968869
C        -6.17370041177005    4.45193791554346   14.69610068367703
C        -6.96249169188792    4.63219100217005   15.83021346243770
H        -7.71912923852921    3.89992490473833   16.07783797096310
C        -6.77243265878563    5.73789205755571   16.63708017911370
H        -7.38921738851104    5.87748306675900   17.51322805133743
C        -5.78849494237725    6.66510067789363   16.32778147223835
H        -5.64410907384593    7.52833327059326   16.96103904933989
C        -4.98386562396527    6.47466701049118   15.21759732822079
H        -4.20321801328138    7.18485253719653   14.98712782106588
C        -5.17477738141302    5.36905075497704   14.40645869054705
H        -4.53633020445868    5.18314184280039   13.55746623070961
C        -8.17962349170687    3.06236833552893   13.20832295888054
C        -8.71259749708211    1.99069262053325   12.49349782772688
H        -8.06593267506492    1.16741887486111   12.22571966172962
C       -10.03794080422591    1.99949479060767   12.10026630698087
H       -10.44171038872332    1.16026111456529   11.55304497454403
C       -10.84347753696881    3.08876620606712   12.39277996051692
H       -11.87833986185853    3.09914463894801   12.08290494115544
C       -10.31010441415134    4.17354718991178   13.06730963778670
H       -10.92658342884704    5.03596857467905   13.27763103237660
C        -8.98530860718111    4.16463293970937   13.47081717042223
H        -8.58161439233980    5.02386131449096   13.98557785122238
C        -6.33522196072029    1.73901455124346   14.96029327779137
C        -5.27174287534503    1.84936802408479   15.85427286248000
H        -4.51957802167100    2.60702651510750   15.68709885500247
C        -5.16844180760151    0.98257156763833   16.92516954066422
H        -4.34285966652322    1.07695684547790   17.61472636766112
C        -6.11628622424391   -0.01201689162906   17.10644112535221
H        -6.03670640333540   -0.69075052081135   17.94293057546665
C        -7.16143108312809   -0.13841626528971   16.20763105835936
H        -7.89657997064012   -0.91882059087897   16.34045305530860
C        -7.27593009530425    0.73396288795894   15.13855285141014
H        -8.09908449714487    0.63157820925979   14.44902957371133
Ir       -5.18103293202377    2.89650474660698   11.71586591018145
P        -6.40227356152496    2.98806681474602   13.62650711965548
S        -3.17695903903319    2.61518323324441   13.09598659393618
S        -5.66538547921623    0.49287237404803   11.66865103514430

