59
CSD_code = ILUYUJ | q = 0 | S = 0 | Stoichiometry = C18H37NNiP2 | MND = 6
Ni        5.05784447261682   -2.01369156008222    2.42057939472809
P         4.04023332653982   -2.87574255309549    4.24046619282101
P         3.53828278717813   -3.31110795343017    1.02466046518524
N         3.48079327270764    0.50131767629694    2.36733641242966
C         6.89109572694629   -3.04641866734002    2.53779848986964
H         7.16375724179794   -2.74757279259883    3.54781626839044
H         7.15744984387543   -4.06620275742918    2.28981864579058
C         6.85585693081195   -2.08545930097783    1.54254191583533
H         6.90603536136885   -2.37867134205117    0.49601913070716
C         6.52461992537716   -0.75093987746485    1.86481936478355
H         6.49419218363824   -0.01839101867835    1.06656348501960
H         6.87895387980164   -0.34841501449088    2.81369272725450
C         4.13701852592103   -0.44659782808757    2.36720803086136
C         3.49021933241557   -1.76553354116298    5.63988288285122
H         3.17333208989661   -2.39330534020185    6.47723006971308
C         4.72100401781413   -0.95311855011451    6.03863718364183
H         4.49881045243407   -0.29413690286738    6.87594551480108
H         5.03525397988584   -0.34178406539099    5.19152835972284
H         5.54668230817888   -1.60454016870878    6.32442337711612
C         2.33801290748108   -0.83313578489272    5.28135281690542
H         2.21281305706909   -0.09954981477483    6.07627333119594
H         1.40071949465336   -1.37537541360938    5.18139650484892
H         2.54290488212624   -0.29801592533443    4.35754358189057
C         4.82074951016326   -4.29485217321904    5.19677949345325
H         5.81168220336643   -3.91616893755715    5.47859522036122
C         4.10043998494976   -4.74389942475369    6.46522456606345
H         4.53327819841996   -5.68483423283514    6.80359986345182
H         3.04017702989751   -4.91069960564521    6.28471895879476
H         4.21057481832061   -4.02502868628057    7.27269191864620
C         5.02014716311288   -5.48841431234374    4.26543888116355
H         5.78036050718748   -6.16065215989139    4.66177382007559
H         5.33793673117244   -5.15203430013711    3.28023033263237
H         4.09373690827731   -6.05112297018272    4.16631718122015
C         2.23641195418912   -2.39111173452894    0.04159468443312
H         1.72614712907585   -3.11301410805766   -0.60716137797151
C         1.20265598652016   -1.69191440529466    0.91560696084363
H         0.53583797503592   -1.10322869962051    0.28747291698369
H         1.69391495790128   -1.01671031159105    1.61202389806179
H         0.59611690190503   -2.40410390058025    1.47058366560763
C         2.96887786162935   -1.36806411867504   -0.82332530068668
H         2.27095806515503   -0.84499672355502   -1.47433873935178
H         3.72570083940030   -1.84567893612489   -1.44484986050919
H         3.45960446320501   -0.63712423017515   -0.18198345253161
C         3.91153523938312   -4.66070474974675   -0.22787270951872
H         4.07938989080160   -4.11198696704181   -1.16406531181067
C         5.20597048660332   -5.38265980133778    0.13413330749866
H         5.48093726331009   -6.08740945136419   -0.64972162757684
H         5.09140085670274   -5.94037325592401    1.06244963390314
H         6.01972821885973   -4.67188887606095    0.25324597386865
C         2.79637856460048   -5.67723639529347   -0.45690363002638
H         3.03722483074228   -6.28501019519595   -1.32821817465800
H         1.83687525107168   -5.19964485045102   -0.63851453000242
H         2.69345482897508   -6.34478802485468    0.39514772169908
C         2.43528298182060   -3.56819283430506    3.62471937125985
H         1.99935410823830   -4.24017599738478    4.37065793065190
H         1.78112836310343   -2.70157252396055    3.51526683464162
C         2.54485862309696   -4.27222639149404    2.27085209321519
H         1.54626266011667   -4.46942176200091    1.87118835327051
H         3.05512264314370   -5.22906545605379    2.39010698647635

