58
CSD_code = ILUYOD | q = 0 | S = 0 | Stoichiometry = C17H37BrNiP2 | MND = 6
Ni        6.18306295363960    3.56406148225832   14.32143606740833
Br        4.52983904699157    1.69236856710439   14.49381871682658
P         4.91430972756632    4.44499234257557   12.75670045658581
P         5.27903671236584    4.87762303873770   15.85488529354212
C         7.57009114286998    2.62471493093873   13.12296690094390
H         7.21096516372903    1.60062506119495   13.17128884910281
H         7.89760026894847    2.93615855543707   12.13744179815715
C         8.14509419488436    3.19317207551142   14.25649593167893
H         8.82328795563078    4.03857376176138   14.16091783434273
C         7.63921312789668    2.82839527366790   15.51009230563300
H         8.03818430073014    3.30586159852475   16.39888270453157
H         7.30205978885976    1.80739520599115   15.66882324374067
C         3.54875198900016    5.23896312801767   13.72631306052458
H         2.94506498664350    5.89873460262655   13.10082618095585
H         2.91993888778298    4.41073510899542   14.06842509100538
C         4.12113852343667    5.98750580535664   14.92419808631365
H         3.33154247376847    6.36148577800131   15.58107745601275
H         4.71105575177111    6.84080735406871   14.57598050368845
C         3.93289723841235    3.37390496487727   11.58776641935482
H         3.30969341345037    2.75648582553704   12.24552802913809
C         4.87617203716424    2.44343249438016   10.83057899334510
H         4.30949336420443    1.80844768708617   10.15290678587128
H         5.40070098174131    1.79930995574674   11.53163098558936
H         5.60674083596556    3.00200757866465   10.24516976732690
C         3.02436297595801    4.12975980323155   10.62466479115441
H         2.42657853155423    3.40722856780089   10.07144601410247
H         3.59632799608247    4.70765528584700    9.90189928735852
H         2.33878783021296    4.78949043376581   11.15085070223184
C         5.59706837852997    5.79157172022182   11.63192228227439
H         5.73160738349654    5.29526389996452   10.66214500450341
C         4.70931680334372    7.01597510998605   11.43642552385730
H         5.17316442511867    7.68078949795629   10.70767494038441
H         4.59717655449475    7.57185889213365   12.36517109453267
H         3.72283206231884    6.75353142737873   11.06609664250609
C         6.97338860928279    6.22753956383025   12.12816151587733
H         7.43587399194050    6.91595068103124   11.42129211939939
H         7.63232162236750    5.36942517620850   12.24399816676694
H         6.89086448523818    6.73245922365216   13.08872523320844
C         4.24613182515776    4.20535889824063   17.26214704386104
H         4.16414704459447    5.02743725819652   17.98499829753117
C         2.84134077237131    3.76441093616163   16.86824922284255
H         2.32362609966053    3.40430746882563   17.75551001603628
H         2.88082344976389    2.94701232555466   16.15354736413660
H         2.25863532519530    4.58337037228680   16.45205072201145
C         4.99928830198164    3.04692850168704   17.91059974623708
H         4.47712674494801    2.71425704810347   18.80527763613212
H         6.01074023662161    3.33759350066049   18.19365567702050
H         5.05192760504642    2.20976234824349   17.21850115885992
C         6.31630700417220    6.10876368560729   16.81535287072133
H         6.72992040039453    5.52101256985257   17.64599098496421
C         5.54406108821833    7.29180216571888   17.39235508503730
H         6.20235571151157    7.86857449610308   18.04077179919845
H         4.68716386395542    6.97906687685861   17.98336489850771
H         5.19280388808748    7.95283432073082   16.60333847357902
C         7.47535231540332    6.62022065233154   15.96532953244010
H         8.20808267535430    7.13495214931969   16.58522288670588
H         7.11905962485488    7.32715341009306   15.21735537708641
H         7.97729950531722    5.80041955535089   15.45575642731126

