84
CSD_code = ILUYAR | q = 0 | S = 0 | Stoichiometry = C30H37B10F3IrPS2 | MND = 8
Ir        1.88397419851803   15.93945377953491    8.71637169603214
S        -0.11113440768000   16.21736275344211    7.36201498021706
S         3.08819871359194   15.73593390310288    6.62125680703575
P         1.51393863068703   13.68947825265658    8.57858836548223
F         6.40192696354139   11.03259502565704   10.63271302824956
F        -3.06760809252617   11.53519222684703   11.65407871303565
F         0.08200650860901   10.88030260917346    3.56011331876338
C         0.51807412279018   16.81827643427861    5.77334442652985
C         2.04803416095131   16.59909874873670    5.42282897827759
C         2.43894409265457   16.07151047165933   10.93814263238944
C         3.54233789450956   16.47667095337421   10.13050382459873
C         3.16473847050790   17.67690957114680    9.43151006070492
C         1.82063874524858   17.97376393661767    9.76546221983345
C         1.35921650400544   16.96689743199756   10.68287079077024
C         2.45347824906415   15.01605088084366   11.99689516809298
H         3.25441292298764   14.30006848267991   11.82876103850811
H         1.50937033789538   14.47363494295996   12.03170042993099
H         2.61240170668055   15.48171569919828   12.97130690472510
C         4.94375930530088   15.96312878271624   10.20423675441832
H         4.97418867586232   14.94076892698093   10.57373391992289
H         5.53066993068510   16.58859774187349   10.88032167894765
H         5.41647182930432   15.99084219691911    9.22470298414588
C         4.12890941111751   18.51527286412760    8.65671591286508
H         3.66376219670108   19.42842087122447    8.29504760094737
H         4.52012850938236   17.96997734511152    7.79733155007790
H         4.97165215233561   18.78316173636947    9.29514555970900
C         1.03495224083550   19.20607513083660    9.44972298644059
H         0.77094376966774   19.71411575275311   10.37853042274472
H         0.10962836180579   18.96008332224657    8.92880891324380
H         1.60121330737717   19.89588433205759    8.82983795525250
C         0.09545562875721   17.08555589692267   11.47434548666343
H         0.19449073876283   17.90501987578509   12.18989176282218
H        -0.11178949092655   16.17600246850226   12.03271273499703
H        -0.75379890802548   17.31163176499692   10.83138449006209
C         2.96743152522905   12.79753128842253    9.23282944669119
C         4.19091670440370   13.03535874338760    8.60570385932742
H         4.23180827828553   13.71667439902362    7.76766831059593
C         5.34981538847108   12.43776762925309    9.06206688360036
H         6.29920780129544   12.60824839369631    8.57973505644142
C         5.27868141951282   11.61645910229538   10.17453455716047
C         4.08743733787738   11.39662356502844   10.84208013380736
H         4.07293458043501   10.77056614551075   11.72038463906866
C         2.93275203002670   11.99377609272830   10.36735486046969
H         2.00489498476385   11.83420175320992   10.89477191107115
C         0.12077848401679   13.01412421642272    9.54681668134232
C        -0.10061089612004   11.63898483217348    9.60835261122958
H         0.56487625242316   10.96407185461639    9.08880175386758
C        -1.17189003443933   11.13654076358928   10.32027853285376
H        -1.35829592297049   10.07614407099398   10.38432355833803
C        -2.02666283058863   12.02371823758507   10.95525425957385
C        -1.84847739222933   13.39321478640153   10.88148323859620
H        -2.54937187544997   14.05346168193091   11.36727045313365
C        -0.76815291614161   13.88047658588140   10.16766479210791
H        -0.61725694087089   14.94352090104744   10.06181672661695
C         1.14981202087617   12.80305360848662    7.02061392819742
C         2.11010684697588   12.14157109071902    6.26465763619783
H         3.14007182632582   12.12530456204301    6.58337827624619
C         1.75380756467246   11.49583357104895    5.09424563785499
H         2.48763548221552   10.98182099253116    4.49421205613222
C         0.43098177153939   11.51964641474889    4.69104887941299
C        -0.54386109738028   12.17805987858129    5.42094493131064
H        -1.56238428396803   12.19266055725360    5.06830999804665
C        -0.17530007669494   12.82519491700684    6.58358835469813
H        -0.91355152714123   13.37469509178828    7.14924288538236
B         0.89951737724056   15.66115015019456    4.54449472700243
H         0.82674554707746   14.53644689705357    4.86138300816448
B         2.29437109798951   16.35135813394176    3.74393823883414
H         3.17018933920442   15.63170169472699    3.43488498592009
B         2.68420812642667   17.90492876904170    4.49819081666674
H         3.81262625110770   18.18259086659732    4.67599281427871
B         1.54327399106381   18.20313989951488    5.78681918463649
H         1.84356876663027   18.59924539372101    6.84449134168138
B        -0.07148268385273   18.29835573700980    5.12430242515184
H        -0.89851877319331   18.85692596915030    5.74502816968219
B         1.30952376683574   19.01432590534755    4.25099640258419
H         1.45633618951372   20.17841621404362    4.16625073188787
B         0.05077798504872   18.11254819663385    3.36471407218135
H        -0.69992854986081   18.65519863364691    2.63983339977783
B         0.66538089720217   16.47345717005993    3.01702712071509
H         0.36090572989853   15.86215790994966    2.06006197540114
B        -0.46749324006086   16.74138374248624    4.37487311895133
H        -1.54917511399135   16.30295544911401    4.50801103036635
B         1.78142390505906   17.86718151852101    2.97043118593419
H         2.26892750431272   18.23267090851258    1.96430630439022

