78
CSD_code = ILUZOE | q = 0 | S = 0 | Stoichiometry = C27H44N4OSiTi | MND = 5
Ti        1.45473824520591    5.02976221769638    8.54237127654525
N         0.51317957462600    3.65728793737487    8.81387874461653
C         0.07496616344383    2.32503709337898    8.95766822451235
C        -1.46769663524097    2.24067035696436    8.84820958450948
C         0.69870867439676    1.44930818705383    7.84162354112645
C         0.50515368720746    1.74108023045287   10.32376754227407
O         1.27819683600576    6.39374282019441    9.69871523819508
C         1.41630851705234    6.69181705177811   10.97643754758554
C         0.48329148485851    6.25819516063464   11.94078252360650
C         0.66077970459556    6.61693241132237   13.26644103612549
C         1.73081865435594    7.40078728096534   13.66155735015202
C         2.65014683337695    7.82740176433627   12.71807319763583
C         2.50908537154561    7.48552469790276   11.38567701498432
C        -0.67069705298633    5.40112948046599   11.50550565704202
C         3.50393842275190    7.91536284491312   10.34496376610580
N         0.12639470527901    6.09090030925784    7.14188987348766
C        -0.06139483194913    5.45551017020711    5.82972534391321
C         1.16232050642866    5.41862934977546    4.90722105635859
C         2.26039398204809    4.47492757976569    5.41215765768763
N         2.48003050950400    4.72230212895590    6.80798964569674
C         3.50471396561661    4.26449885754429    7.48318477178048
N         3.43108277460714    4.46219939350338    8.78687132156462
C        -1.17398614387784    6.15497860761665    7.80519515322422
C         0.66466353969545    7.44076929675888    7.01181036431168
C         4.67196158491679    3.59744039133112    6.84445532673786
C         4.56463457665115    2.31197332032972    6.32524964719961
C         5.66469487737670    1.69770550951591    5.75376297401082
C         6.87702173975760    2.36394308618758    5.68470836994021
C         6.98676223567213    3.64839226439709    6.19018661822019
C         5.89026273240011    4.26306749024222    6.76857004751271
Si        4.39130650994195    3.80077324156479   10.05528559724334
C         3.26435704180881    3.98038683141668   11.58537993435053
C         6.04258011635451    4.74305381235316   10.31826690080724
C         4.84442572348566    1.95574788429714    9.77502190049351
H        -1.80593128909726    1.21462050943430    8.97469108145910
H        -1.92397664977842    2.86152365926109    9.61675077767585
H        -1.79163386191919    2.59855574388549    7.87154591306554
H         0.40178556323299    0.40702855857352    7.94471670644798
H         1.78384653345116    1.52642959521050    7.90836330939368
H         0.38180916429864    1.81611481109064    6.86549222340274
H         0.18550638085087    0.70467801063436   10.41693823813809
H         0.06401568671706    2.32220509157873   11.13050215888951
H         1.58865433202909    1.79547096977805   10.40954447761612
H        -0.05386064788140    6.27559933122010   14.00326104265956
H         1.85197622309713    7.67323768445693   14.69966084934704
H         3.49402767529751    8.43204057924611   13.02302898743642
H        -1.00758116083736    4.77055232560648   12.32631118302969
H        -0.35614540493104    4.78063726225084   10.65188608096427
H        -1.51375087166548    6.02103995180131   11.18966102790622
H         4.44257801250236    8.21648826982138   10.80588427774899
H         3.68744346854214    7.08671481137065    9.65404359795591
H         3.11842047194706    8.76017054896884    9.76862567454415
H        -0.86901354312935    5.98600900661329    5.29026060495465
H        -0.38432857853983    4.42577063558378    6.02275011615914
H         1.57057289406240    6.42202932325396    4.77462735843902
H         0.82841964066241    5.07390322829714    3.92509603025367
H         3.17851672176170    4.61624044277689    4.81546919899916
H         1.92590282609336    3.43458752999641    5.26346435531753
H        -1.05395663006125    6.62475056501743    8.78305475804691
H        -1.89836355243873    6.73375486048046    7.20700986638390
H        -1.54730353169861    5.14045423400542    7.95636535491476
H         0.64382925687335    7.92717546671240    7.98896622290291
H         0.07309438180888    8.04258790011994    6.30221469347267
H         1.70224859128700    7.40349325527063    6.67509306236806
H         3.62036710129129    1.79021184916642    6.38656928727172
H         5.57594588287081    0.69498059204734    5.36168458014230
H         7.73469752327773    1.88288832753342    5.23797850090678
H         7.93010176913362    4.17240024402989    6.13558627104180
H         5.97257147096361    5.26541261273605    7.16401197495652
H         3.36685214743824    3.14700346346509   12.27307010884616
H         3.48289855104893    4.88786456664633   12.14018866782399
H         2.22467622512453    4.03425505680607   11.25498194762620
H         6.49378676613388    4.44620793801397   11.25931236466715
H         5.89414612803584    5.81783830288400   10.35402406451932
H         6.75946990254930    4.52919062327336    9.53093566826180
H         5.22273227991729    1.50455504101743   10.68668038094409
H         5.61071878197462    1.84550091722839    9.01310047671064
H         3.97908874077330    1.38118724236271    9.45659172683496

