123
CSD_code = IMABED | q = 0 | S = 0 | Stoichiometry = C41H73N2O4Si2Y | MND = 6
Y        -1.87411978784514   -1.31908454333463    3.78173560710662
Si       -4.72437455854776   -1.20385427398567    2.15175550723037
H        -3.77184501825126   -0.66074720712777    1.13304199990359
Si       -4.96392477224628   -1.00753267223968    5.15483752004963
H        -4.03722101026449   -1.15349157396286    6.32143378916194
N         0.53869614760039   -1.45336674418001    4.38847521393244
N        -4.02097720914305   -1.03163720351740    3.71383343293965
C         0.72264739579878   -1.31175880620862    5.83623038162473
H         1.79467891820953   -1.24284310931946    6.08913168144776
H         0.31409714675952   -2.21279777228911    6.30450454879281
C         0.01000141493899   -0.09171818655404    6.41628086114957
H        -0.00025545884157   -0.17334867997900    7.51497942957115
H         0.53243371897426    0.83331804403774    6.13872601353744
O        -1.32800170722820   -0.03689735642333    5.93324181289047
C        -1.96390815472127    1.15653166727891    6.36320368401898
H        -1.95905427398319    1.21529550888040    7.45851388465160
H        -2.99018145261741    1.11852352328964    6.00505397348694
H        -1.45355408031895    2.03501605304763    5.94985422745951
C        -5.11061981428462   -3.02283059857292    1.68733631310577
H        -4.27767510435190   -3.67458354420745    1.92987325297662
H        -5.32860492193195   -3.13097926951267    0.62855758248625
H        -5.97481305243804   -3.38470953528491    2.23516811275415
C        -6.35480806923065   -0.24975796546347    1.89320776934174
H        -7.14550390228981   -0.64162476730976    2.52319278899147
H        -6.68921620554217   -0.32467462603407    0.86350625315325
H        -6.23833324553802    0.80219439415473    2.12712932020347
C        -6.28892037442004   -2.37368213688486    5.29624778680349
H        -7.07451607017514   -2.23343510635698    4.56037634050591
H        -6.75442882039952   -2.36590005315814    6.27703050834794
H        -5.86149043313523   -3.35705879610981    5.13871842385027
C        -5.90542594302803    0.63813869482016    5.42410408881092
H        -5.28145850006678    1.50744896538357    5.24509617967695
H        -6.28031303170293    0.70296648168834    6.44103135639122
H        -6.75800087656257    0.71192068866038    4.75851795587982
C         1.31863334015293   -0.44418839664948    3.64326651190448
H         1.30089107833725   -0.74745277654485    2.58826323548504
H         2.36678212785551   -0.46436832427300    3.98848025839267
C         0.79706448971618    0.96600831284677    3.71186324234170
C        -0.48034305157973    1.23884259875940    3.16739060045504
C        -0.88416644331495    2.59920372305027    3.09759494105511
C        -0.06251497977831    3.56892334255400    3.65097793643238
H        -0.39159063676422    4.59105528424756    3.61632203471161
C         1.16698097747342    3.29532269992060    4.24002929278647
C         1.59007159808863    1.97381126231616    4.22977824530017
H         2.56027257630198    1.70787602461768    4.62859717182360
O        -1.20884888762603    0.23698254048505    2.71351011246049
C        -2.19495487303491    2.97585789566249    2.41527094624739
C         2.05125088776633    4.36521446249908    4.86352552370004
C         1.05255359957049   -2.77707963800711    3.97889858224169
H         2.14851408972712   -2.78997592567913    4.11429704732237
H         0.85186943380704   -2.87933218151334    2.90517018656076
C         0.48005822711783   -3.96728706837620    4.70906981510565
C        -0.90855641659192   -4.09225136256329    4.93433151119250
C        -1.36199801605521   -5.27769364181464    5.58046751728965
C        -0.44032393444477   -6.24116167408088    5.93790039226050
H        -0.79240867601987   -7.13631609895544    6.42071742219043
C         0.93018474031616   -6.12144649606887    5.71569948750739
C         1.36477989961843   -4.96215810519654    5.10184184092747
H         2.41458125920247   -4.80579698212687    4.90442205012982
O        -1.74051918443837   -3.14028020125580    4.57251272158971
C        -2.84434799202821   -5.44681905210371    5.89486076210148
C         1.86240035909177   -7.24061644691842    6.15429384683023
O        -1.32589764325361   -2.59930492611440    1.67142776756718
C        -1.40121202451130   -4.00342905225910    1.42142607878496
H        -2.02479899100973   -4.44669876879902    2.19826925620507
H        -0.39416815333585   -4.44129288588441    1.49065695813863
C        -1.96302914664910   -4.17307912991341   -0.00216285339954
H        -2.97736007546916   -4.56418294061567    0.01553873830771
H        -1.34257324130167   -4.85745132227173   -0.57914269793763
C        -1.92693734068088   -2.75111787416858   -0.58150688217563
H        -1.53344329165995   -2.71892364720240   -1.59488592266730
H        -2.92277349064715   -2.31111786324020   -0.56974784380839
C        -1.03131779719683   -2.00957755895539    0.40889107231066
H         0.03053838696447   -2.17210561938530    0.16438522538128
H        -1.23209674735430   -0.94085259633699    0.48370640220844
C        -3.36741343066182    2.40309002654500    3.22124898192296
H        -4.30534773176547    2.59744069521515    2.70509030080949
H        -3.40914722621456    2.87620015708297    4.20169460498866
H        -3.26700762042520    1.32431422548091    3.34656602733471
C        -2.40060230359007    4.49096195891939    2.29453430785230
H        -1.58873980759399    4.95581330152463    1.73953346238260
H        -2.48417042632648    4.96388491333045    3.27062260475337
H        -3.32721566724001    4.67967452996145    1.75588979483138
C        -2.20663772058887    2.39365919053959    0.99601990493410
H        -1.36910491533431    2.78570670578115    0.42134862157862
H        -3.13294699482570    2.65511747283479    0.48875666053238
H        -2.12915901610569    1.31230662304325    1.04099496595912
C         2.30078867431953    4.01256940485595    6.33775600239510
H         1.35685442569317    3.96289024037940    6.87754327064556
H         2.92541023471703    4.77058233681037    6.80609572855130
H         2.80159034312074    3.05309043033887    6.43603920693269
C         3.38842833930270    4.41678638777808    4.11138901435163
H         3.91306093917307    3.46739392795442    4.17320326597836
H         4.02939371558831    5.18911109736756    4.53210222512934
H         3.21727696744606    4.64247216521791    3.06116271712150
C         1.42267150661582    5.76022526025337    4.81157647018030
H         1.26323794635455    6.07873230215074    3.78442510215164
H         2.09096120086327    6.47710456228828    5.28511848556841
H         0.47419753786584    5.78250919598177    5.34330350620631
C        -3.66460619815920   -5.33477846203064    4.60289029051035
H        -4.71772728106486   -5.51758233363950    4.80964571809778
H        -3.32455831459148   -6.07335900033656    3.87713450305389
H        -3.56218850848255   -4.33792114614508    4.18012010472626
C        -3.17554575920961   -6.79766580567882    6.54008289970426
H        -2.66794945720627   -6.91716414799619    7.49460106985303
H        -2.90892146682151   -7.62456195291519    5.88510576093239
H        -4.24683067351624   -6.84880743600095    6.72604939139064
C        -3.25628204608372   -4.33984870806819    6.87430315188669
H        -2.69165328893081   -4.43209035385240    7.80098647302242
H        -4.31716480429573   -4.41003758552941    7.10454804666008
H        -3.06237106494954   -3.36335979884008    6.43821814684226
C         1.47143052698422   -8.53714193714379    5.43110665739406
H         0.45372247059597   -8.83089102558918    5.67153171627427
H         2.13801684850106   -9.34714821080192    5.72118924584009
H         1.54037982119136   -8.40066872627856    4.35384472622076
C         3.32993797171190   -6.94318598251143    5.83374126385502
H         3.47801152312020   -6.81881538618536    4.76350066021251
H         3.95048700291115   -7.77365732196485    6.16528097413600
H         3.66729436568871   -6.04567519221118    6.34697935448146
C         1.73785772455669   -7.43814848896210    7.67165863105511
H         1.99677468464491   -6.51819546839336    8.19173738603346
H         2.40956027923151   -8.22635848325035    8.00647255201497
H         0.72479174490327   -7.71255324028202    7.95131990498109

