83
CSD_code = IMABUV | q = 0 | S = 0 | Stoichiometry = C40H35Cl2N2OPRuS | MND = 6
Ru        2.87583409726520    4.12129337348310    3.90448228642480
Cl        4.92607138270044    4.37959190345172    5.14848637076164
Cl        1.47074460031972    3.59542432276030    5.75529996206164
S         1.01290015096918    3.59145307226725    2.77096476194852
P         2.53312570183074    6.39484571457887    4.08808751876782
O         1.08504813725893    3.68733488704539    1.31100839016773
N         3.57686697319420    2.23861375007238    3.81815790143796
N         4.20092583739061    4.37058310106091    2.22207793052762
C         4.20649779573539    7.13915193704954    4.14616656630686
C         1.88692373380054    8.89410976463624    3.08507885961811
C         6.35324657069250    7.39099417541375    3.03826239606880
C         4.97666949140523    7.04997348148523    2.99998232253149
C         4.26039564556514    3.02355667878621    1.65404284489908
C         4.47352834991829    9.15046747170552    1.15081680338338
C         6.08050662704408    8.02670462202777    5.37335872079802
C         3.54555776625692    7.59065195127020   -0.46090267021251
C         1.76819438529708    7.52285990498427    2.87011293236529
C         4.76719994221628    7.65886914739002    5.32763366889828
C         3.32990714338703    8.67297297396308   -1.33710779437966
C         1.74054999532724    6.88782609831670    5.64617068679197
C         3.59992639966115    1.38537723091762    4.83670386689706
C         5.19177544382055   -0.00869568265766    3.73495022627969
C         4.36098105993758    2.00798630948151    2.75819654853056
C         4.38529477437649    0.24637622275092    4.83208811014789
C         3.67725448564360    9.94359790819884   -0.97666622546754
C         6.91582240529071    7.87038666697199    4.24936625096672
C        -0.53588114498470    4.39227033876595    3.29471213061030
C         2.27730892697636    6.35175682178230    6.81811542843512
C         0.57232576349954    7.63964458515403    5.70856709982453
C         1.35372452774140    9.78932959605963    2.17911537006798
C         7.19186350349730    7.24713615690459    1.91087749949894
C         4.13512987254755    7.82338018849000    0.80692703594531
C         3.39980923103553    5.23555245841210    0.05342008185537
C         5.17922497956882    0.89363762095988    2.68149338157588
C         3.98545061939786    5.44774463248861    1.31906140726617
C         1.67975548093597    6.60909188747442    8.03647206747194
C         4.35222661096589    6.73047197647701    1.69195829696431
C         9.07388811716504    8.04000139174033    3.18019433966174
C         0.47025627113310    1.88242116176982    3.11002777744990
C         3.18529014712150    6.27411612960036   -0.80438277127395
C         0.53116131093865    7.38246320304737    8.09580110636521
C         0.69955565356849    9.32546641293178    1.04855852360985
C        -0.02299509899077    7.88961745679331    6.93296999329110
C         8.51911868837043    7.56308547358007    1.98244416150281
C         4.25268711015155   10.18005950535045    0.27994365976411
C         1.11839526521891    7.06290626820678    1.73265982331786
C         0.58478179209005    7.96454474508269    0.82754863212240
C         8.28853715925228    8.19036952718572    4.28793541668673
H         5.04728131082198    4.55794935825856    2.78148653383618
H         2.40386976673089    9.24987871533760    3.96664055826646
H         5.09349972814733    2.91730184956774    0.94611357218908
H         3.31493027764286    2.83873007007362    1.12665495500158
H         4.90990264104895    9.34996195051655    2.11737671462812
H         6.50264586289633    8.42725671033157    6.28384490004536
H         4.14479138224272    7.76664901069735    6.20335899002159
H         2.87990069893578    8.47517349942360   -2.29957981423426
H         2.96442288035069    1.63541357870503    5.67756335732839
H         5.82567544967596   -0.88110019257045    3.70094285616781
H         4.37012672297908   -0.41768684051561    5.68090201947696
H         3.50973436790733   10.77056578709652   -1.65090590176174
H        -1.32619511533861    4.08487417958662    2.61982146255585
H        -0.39915164775206    5.46869893922572    3.26185029170794
H        -0.72101541586486    4.07577382472342    4.31485996968139
H         3.15114907252224    5.71503944242031    6.76029810387380
H         0.12512970386029    8.02828479434354    4.80373931554883
H         1.45158278778982   10.85143776491336    2.35011206184191
H         6.76816124084511    6.87867620875001    0.98725964624373
H         3.08650889565237    4.25069852975788   -0.24567329208107
H         5.80225576889145    0.74311764127404    1.81336305620549
H         2.09980926617987    6.19148400577906    8.93939668844366
H        10.12539036108070    8.28451836643717    3.21752488209435
H         1.21901287039551    1.20354083599686    2.71253134872821
H        -0.48015897508800    1.72008145217693    2.61559119767870
H         0.38876409775745    1.77936180633883    4.18669453067699
H         2.73282583977129    6.09133357263705   -1.76788204813967
H         0.05866988954242    7.57682025101635    9.04770946621850
H         0.28757351130229   10.02663681962515    0.33801567737809
H        -0.92967678458625    8.47619580526295    6.97591703515148
H         9.15220672144031    7.44530666703303    1.11493195634482
H         4.51869005963342   11.18886144109059    0.55953767222501
H         1.05702819015567    6.00315779201111    1.53405969071500
H         0.08513393933725    7.59891976006106   -0.05726861915363
H         8.70786094957422    8.55211207694027    5.21587146656504

