111
CSD_code = IMACOO | q = 0 | S = 0 | Stoichiometry = C42H58Cl2N4Si4Zr | MND = 8
Zr       15.73689881448764   -0.87345692205808    1.84052083405896
Cl       16.03935257990854   -2.41489437564082    3.58389906178323
Cl       14.11835337056291    0.66446629905620    2.67967444025316
Si       17.43400224247045    0.72246066155953    4.36317671931250
Si       18.04872852147889   -3.09592813853320    0.71905935959138
Si       12.82562870612309   -2.84808257492476    2.31042897335391
Si       14.20752047329980    0.33221244157836   -4.19603173980402
N        14.00292781208857   -2.04151082174748    1.30991368943905
N        14.80558143272774   -0.53042160242313   -0.12911971257883
N        17.47841955618592   -1.45278975423412    0.75174160980061
N        17.13998214465479    0.50113567907195    2.65346140321475
C        13.84093173914038   -1.39490583181852    0.17329692397388
C        12.65514631085134   -1.59191031061569   -0.69658284067951
C        12.40200980646765   -2.84105586973224   -1.25156637902059
H        13.06899726384588   -3.66301251768792   -1.03216936965098
C        11.31252345439241   -3.02186821702010   -2.08407777550323
H        11.12492816224579   -3.99161470182770   -2.52135832643809
C        10.46236093880111   -1.96267420459159   -2.35475957972212
H         9.61040648634708   -2.10577087147849   -3.00285827074099
C        10.70492900228401   -0.72028941348093   -1.79233730564082
H        10.03851587767760    0.10449448712496   -1.99709233416618
C        11.80138396794535   -0.53004259885393   -0.97167531323909
H        11.99716210273273    0.43746793752294   -0.53283311932518
C        14.82758097738699    0.14634692077060   -1.35639040314660
C        14.59250921153930   -0.45755432096953   -2.53424056812464
H        14.41373981806444   -1.52584891673686   -2.49555166055939
C        15.15943225719282    1.57856098576448   -1.24454633439846
C        16.07109172554892    2.16866484424111   -2.11689469905931
H        16.56499001705819    1.55473964423676   -2.85289949689572
C        16.36615545957941    3.51543527644093   -2.01459733377597
H        17.08119438213667    3.96120224418066   -2.69145291861330
C        15.75005394052599    4.29307138326377   -1.04734595674640
H        15.97685079823927    5.34617452862495   -0.97156576332284
C        14.84895612144755    3.71183075599271   -0.17178834281597
H        14.36314819568812    4.31273264311477    0.58146349628858
C        14.56446066523363    2.36063078424354   -0.25751319215149
H        13.86527414390390    1.91409939245265    0.43652358433868
C        12.70070808939193   -1.97541509849670    4.00746955796455
H        12.34726537344043   -0.95179699410177    3.91439982967870
H        13.65997771338724   -1.95376688148847    4.51786836666185
H        12.00313439405888   -2.50921732520157    4.64583332491289
C        13.43708889244235   -4.64772151391604    2.54153016960228
H        13.52035683213939   -5.18622158712564    1.60204582998111
H        12.73742166768963   -5.19078313702332    3.16700797788478
H        14.40504250365406   -4.66912696699591    3.03287814731996
C        11.03251417742386   -2.90339167641587    1.64089844498087
H        10.68443880813034   -1.92662608873247    1.32172996463986
H        10.37070605613473   -3.24608145665583    2.42891872024581
H        10.92123778166784   -3.58212249277439    0.80318933180043
C        13.16253165634803   -0.98687743078848   -5.10375934341056
H        13.74198411111174   -1.88406226135371   -5.29993648541267
H        12.79796221381280   -0.62026860801515   -6.05819932515440
H        12.30027709261598   -1.27785392554363   -4.51101616810283
C        15.72665143199943    0.72854615592054   -5.29383586210107
H        16.58034913338222    0.10535789013963   -5.04458286315656
H        16.03287205351457    1.76495109568072   -5.19134689140435
H        15.49527303968540    0.56164053057933   -6.34165277518714
C        13.14491792818088    1.90346808804123   -3.98458663908000
H        12.79743327952472    2.27781487527414   -4.94293112600329
H        13.70065627329487    2.69970689603351   -3.50028133316758
H        12.27104943744762    1.69648373660199   -3.37451945100846
C        17.79853367949879   -0.44063428577019   -0.03926020743540
C        17.67280874734126    0.89653382433895    0.35893023806391
H        17.87959840493610    1.65779198199117   -0.37966902196552
C        17.40491708659418    1.33776476481160    1.66911564170885
C        18.26007741507351   -0.66649122035740   -1.42887777218062
C        17.55724381740033   -1.55701846014560   -2.23440515910241
H        16.71831263299426   -2.09126325232814   -1.81306800717398
C        17.91509525911128   -1.73918414865608   -3.55682131711906
H        17.35445196555712   -2.42312772411926   -4.17676791979016
C        18.99071679763457   -1.04500011360410   -4.08614907281020
H        19.27453893515515   -1.18984712837592   -5.11800289605755
C        19.70118430049412   -0.16312632601551   -3.28851575602836
H        20.54344673620763    0.37466693227050   -3.69771807779197
C        19.33358677960058    0.03385250921246   -1.96974198493001
H        19.89324224368324    0.71698948969838   -1.34811688462188
C        17.44808570801880    2.80406417131705    1.88022305732218
C        16.38748803659568    3.41769606256275    2.54097740251296
H        15.56588418907804    2.81179112761465    2.89676086221566
C        16.37454322034384    4.79083599568350    2.70647302721089
H        15.54574713012485    5.26125895107355    3.21469824036073
C        17.41890907337930    5.56185398719345    2.22479807998393
H        17.41010437164103    6.63343454605499    2.35987511617974
C        18.47718782277024    4.95545376258078    1.56850393920772
H        19.29580656199013    5.55363031611788    1.19567668194432
C        18.48942779318533    3.58459364824330    1.38869873460732
H        19.32195397262142    3.11323185981753    0.88675436692903
C        19.02596678959341   -3.40502456294761    2.33351493013854
H        19.81818635273557   -2.67362750871398    2.46495925911292
H        19.48810772283728   -4.38689383253711    2.31010724149203
H        18.38293612099786   -3.36239603458308    3.20531754916488
C        16.46697117315030   -4.16763696910356    0.58758449097702
H        16.30870204624141   -4.55083188914925   -0.41727814020207
H        15.59008177830841   -3.58226128696752    0.87676203573438
H        16.52544460492976   -5.02209418799370    1.25381899365454
C        19.27021893652590   -3.59251854533008   -0.67249129833938
H        20.02908639395504   -2.83179115194928   -0.82303315823690
H        18.78764431446567   -3.76280533111975   -1.62785601531311
H        19.77928883962612   -4.50947866883343   -0.39535999488587
C        15.84078576326540    0.53990105418369    5.40011314994139
H        15.12493335859995    1.33383255800476    5.20591193027183
H        16.08483698698350    0.56290095220952    6.45753648961189
H        15.34662142529475   -0.40733717312016    5.19667549846958
C        18.27531789982342    2.37364427098765    4.85464315728831
H        19.07659547064817    2.63658706642805    4.17218304284384
H        18.70889803330662    2.27219028491464    5.84358874311659
H        17.58390271914975    3.20765676848670    4.88402434670239
C        18.71429385404877   -0.63506744926241    4.80250227783572
H        19.53614794269673   -0.65344544346835    4.09264452108827
H        18.25813766973329   -1.61818023132736    4.81454097212042
H        19.13252270140642   -0.45250472847432    5.78638590447460

