73
CSD_code = IMACAC | q = 0 | S = 0 | Stoichiometry = C38H29Br2FeN2P | MND = 5
Br        6.07748842882221    5.84256673246255   -0.09107674384287
Br        8.57682475198725    4.28823822512713    2.22826799334241
Fe        6.61794544324739    5.52730640388617    2.16439296963843
P         7.93744404547426    7.30164653978813    2.22361757311162
N         4.94134898933893    6.61325912912293    2.63719796590920
N         5.37647569929920    3.99044013231420    2.29453753805045
C         6.10602390478187    7.61777181571537    6.55999918364643
C         7.05203583987919    8.91328294896886    2.12425838984899
C         5.16717827580859    6.02601216972732    5.00390770231002
C         9.32170859513122    7.44969711134467    1.05234310904749
C         6.27925802150259    8.55415046749039    5.50642016023178
C         3.75351258870310    5.78614629097924    2.44167627234874
C         4.09226658469166    4.32125521253820    2.50980592405271
C         8.76553125850913    7.58769343966776    3.83155261417680
C         5.27626570183778   10.32884876512878    3.00452859681142
C         7.22993400015563   10.11669253323357    7.08313254289811
C         6.85894137926072    9.80570519654061    5.80547315142614
C         7.29797410374137    9.86759717452647    1.12005155038225
C         5.52658924604660   11.27124436576367    1.97293206525616
C         5.87853053407992    8.20196399232831    4.19299081795433
C         3.43558920656002    2.02874314359045    2.69979518307833
C         6.56450214119679   11.01737960676384    1.05371421949265
C         4.22520956304936   10.58081272103225    3.91396386361329
C         5.55049311744770    6.35368083663303    6.27165044739668
C         8.69973044775618    6.64857836481261    4.85123932425574
C         5.68095738466138    2.69203055096312    2.24300226497675
C         5.32579797950581    6.95199768334605    3.95160602921636
C         6.07116413077535    9.15582432557967    3.07422372680414
C         7.04922054482278    9.19466059012790    8.12393478175129
C         9.43977373963430    8.78699664151859    4.04719895715931
C         9.06357901963979    7.60912789698936   -0.30875932819361
C         4.73333093460293   12.43496856310337    1.90023951356213
C         9.97982414508178    8.08888344909376    6.27605901039216
C         4.75356898559645    1.68763067489382    2.43929082115482
C        11.41437403167736    7.49562422379243   -0.77736271373712
C         3.10615513987666    3.37461505694464    2.72900979498189
C         6.50032858937271    7.97012162780010    7.86538596529383
C        10.04479873150991    9.03331814220721    5.26342090001285
C         3.47215743638960   11.71611083944190    3.81251242152848
C         9.30798864664597    6.89780989921471    6.06853334482793
C        10.63472100616122    7.26910095012323    1.48129500368524
C        10.10850820134302    7.64118488786393   -1.21386008612499
C         3.72933343013642   12.65407169383882    2.80035941868270
C        11.67277670442394    7.29972191352733    0.56897313410774
H         4.74049380953232    5.05506463833024    4.79879748095700
H         3.37736905972502    5.98307663051979    1.43182804962485
H         2.96518772250808    6.03578247457238    3.16266520481068
H         7.67154140528910   11.07846570771284    7.29753034825564
H         4.88378612999745    7.45585204694849    2.06311684647607
H         7.00873946657019   10.51828023481053    5.00866584667230
H         8.08834813111027    9.68978447726465    0.40706970947847
H         2.68284577009118    1.27345349128098    2.86185397852785
H         6.76849410789964   11.74888334259339    0.28533198752715
H         4.02280024549626    9.86088156094900    4.69394509912043
H         5.43012056612675    5.64218032649780    7.07519146724348
H         8.17147017163474    5.71604476980696    4.69704491556813
H         6.71148544168307    2.45373600025930    2.03085414202310
H         7.35014909848281    9.45794594306586    9.12692284261220
H         9.49006015071664    9.52015968537783    3.25265399066847
H         8.04696429777938    7.67780225419883   -0.66655462527259
H         4.93440089118561   13.14722861038021    1.11314308667660
H        10.45284597397400    8.28402307309342    7.22695931786660
H         5.06509158999262    0.65766599195251    2.38248869407458
H        12.22839569829826    7.51585300139107   -1.48704154222231
H         2.09147456825040    3.69684184552425    2.90609314111275
H         6.36242503479968    7.24901811761589    8.65825701439828
H        10.56868502688857    9.96420147151381    5.42449559229296
H         2.67019368792443   11.89802923452149    4.51268641640729
H         9.25507423123375    6.16009901102494    6.85535674508942
H        10.84641745830930    7.08785441996220    2.52555960041442
H         9.89689661211809    7.76611715376581   -2.26543122846132
H         3.12452385622075   13.54646312119205    2.73814931243990
H        12.68715914599560    7.15739843400330    0.91203119109163

