83
CSD_code = IMACOQ | q = 0 | S = 0 | Stoichiometry = C44H33Cl2FeN2P | MND = 5
Fe        5.37196092714272    5.45632932550484   12.41071039013995
Cl        4.84889520329414    4.32266863754728   14.22025490635938
Cl        6.87507046147913    6.80928096377187   13.24424739429755
P         6.92337494648604    3.89591775026077   12.15507706443460
N         3.87275123941005    6.59756298903087   12.81024999420841
N         3.98654525411161    4.31353408396596   11.47932535320390
C         5.47263972366790    2.22410271517048    8.78430964011609
C         4.96671604787599    8.29778376829558   10.55220517797531
C         5.97809534676137    0.92586878259344    8.55570123466219
C         2.66672416396769    4.95208656292664   11.49571434164232
C         5.10654249510550    6.93999480123292   10.32180630562992
C         8.30792952899768    3.74505872002064   13.33847169713590
C         4.79680826543099   -0.21555031063360   12.55024957147918
C         1.52818299022409    6.93853888775614   12.53357080383405
C         5.79701503104046    2.68416439017714    6.40847972153979
C         8.24158584998961    5.10564791547503   10.05570978571222
C         8.15802529001791    4.22322374692717   14.63694250054998
C         7.85202002818074    3.87650190178498   10.57654833832575
C         6.36382499964850    0.53390916608355    7.30473783786967
C         9.21927591409588    4.01049396224334    8.16214734484625
C         6.17420602167977    2.21550225198033   12.21336945217472
C         8.19221891217630    2.71166190270738    9.89787490593154
C         4.94832148771622    4.43686097874680    7.90729849607569
C         2.79710329104528    8.45419787707268   13.85374465155661
C         8.91885449886277    5.17321096952579    8.85239353412089
C         3.33984322641405    7.02323646945732    8.69916535046087
C         4.52224319250498    0.60783497960257   11.42721282664338
C         5.24450889569670    1.81755589698000   11.26351212987127
C         4.29515315862155    6.29002503337836    9.39423830942816
C         3.91006557386291    7.68461601502819   13.58080022705113
C         3.99211983049258    9.01276238496337    9.87795370557961
C         4.52090372070383    3.93411780078793   10.22282530010707
C         5.04485146147165    2.66456510372357   10.06429887791003
C         4.54264729617013    4.85777530936467    9.14635135394648
C         9.51528375978618    3.15900186483146   12.96274496516114
C         4.07600259700665   -1.41726143348468   12.71090163943884
C         9.19814686262039    4.11660711869674   15.54241086874982
C         3.50852812098791    0.21120186377890   10.52630199265076
C         2.68887332310338    6.21732692027611   12.31239715223361
C         5.77156879195818    0.20073904228842   13.47921511057380
C         5.38577302277090    3.11766011921362    7.68494698244431
C         6.27486078267121    1.41847921961439    6.21977639133996
C         8.86962408376262    2.78095554290842    8.69449552232007
C         2.82311785617269   -0.95516677020711   10.71580109592254
C         3.18213294752367    8.37441575178181    8.95166931901585
C         3.11314385752956   -1.78161409871879   11.81290833820315
C        10.54948641918311    3.05291849960391   13.87433735402113
C         1.57589293275846    8.08396194310524   13.31189048219201
C        10.39515801378430    3.53275399050042   15.16464420533508
C         6.42572068890496    1.38874326280473   13.32470251828067
H         5.62003210937707    8.77922514986763   11.26361313691947
H         6.05167038842490    0.23551714179863    9.38221511187558
H         1.92720553524002    4.26904645639159   11.92863402602600
H         2.34775292520182    5.18459033077701   10.47568784883431
H         5.93231199303799    6.38939000012470   10.78099524014381
H         0.59936587477718    6.59595338747090   12.10342048767368
H         5.72825253281060    3.37718237772039    5.58234890727169
H         8.03257102412121    6.00809140429186   10.61513217535485
H         7.22856708850105    4.67993620046310   14.93565670919990
H         6.74390723736784   -0.46447031933448    7.14517352738556
H         9.73821643559476    4.06051469159074    7.21622902753003
H         7.93162663580250    1.74991824315672   10.31706401652310
H         4.97530610508372    5.14257889412920    7.08963548207473
H         2.88839179175358    9.32470211023013   14.48276160698244
H         9.21316507656736    6.13266543854480    8.45303262748281
H         2.71319682507257    6.52757456321506    7.97050201028237
H         4.88343261204770    7.93157970754832   13.97790385608750
H         3.86980221277764   10.06903724250534   10.06423859901596
H         9.65339640845583    2.78751826910026   11.95735577346376
H         4.29769448750897   -2.04025156707876   13.56536238523390
H         9.07267417746117    4.49577768986004   16.54562270643365
H         3.28069320915978    0.84629513900403    9.68217769162025
H         5.97801251181800   -0.42844852368604   14.33270800548094
H         6.58930196514490    1.09243463016667    5.23945058640674
H         9.12176072975946    1.87116187228016    8.16913234551247
H         2.04960237808379   -1.24819030603239   10.02108791305463
H         2.42740742030249    8.93349116929335    8.41832432932364
H         2.56378403949470   -2.70227265594732   11.94322150325014
H        11.48213199764481    2.59716829504644   13.57286186865298
H         0.68336241082621    8.66073686159026   13.49800708441874
H        11.20880976151192    3.45393116402939   15.87119251143984
H         7.14258328752183    1.71447239267129   14.06310186479263
H         3.97277247594870    3.50087797716728   12.10000657182467

