73
CSD_code = IMACIK | q = 0 | S = 0 | Stoichiometry = C38H29Cl2FeN2P | MND = 5
Fe       13.51004582005854    5.06086029120162    8.47573615082286
Cl       11.70446258922527    3.90931227108567    8.73359697978767
Cl       14.08945486933075    5.37009540455038   10.54644991208518
P        12.15930940735758    6.78551598929449    8.48956707886873
N        14.69665397204884    3.55436565333975    8.31344092415590
N        15.17583466398372    6.15226258348363    8.02212782244374
C        13.00776834196682    8.40972143893040    8.61128038136497
C        13.17462041530920    9.40802919749881    4.96427318063830
C        10.79346271056049    6.90070973322996    9.68085684292177
C        13.98529499178922    8.69410933465518    7.67018203482003
C        14.77040144432385    6.52777944431573    6.72697694349020
C        11.33815565393914    6.99158718885886    6.87186735101805
C        16.94794475768001    2.87752931031595    7.87366289868678
C        15.99308926190436    3.85071528366907    8.10964346197860
C        13.76772097243208    8.15375817796560    5.22582709695804
C        11.11489908514414    6.87148480622313   11.03794829257583
C        14.51368007875072    5.98491264741988    4.39411258181242
C        13.93307786527382    7.24619661852584    4.14612626834112
C        14.76253922372101    9.87588439930471    7.77822669130049
C        16.35689282526970    5.30985101332056    8.19451639643197
C        12.94904265978852    8.85064229255187    2.63553708358067
C        14.19065438151369    7.77431804025129    6.52439402274383
C        12.76461777058321    9.31434835840731    9.66099127178890
C        12.78200595501956    9.74734087416985    3.70029115670102
C        13.48351086394840   10.47044965790318    9.76720858080663
C        16.57276624274673    1.54200993561769    7.86691011281700
C        15.23984068339528    1.23757287611735    8.10169494561740
C        10.68590676696788    8.17489476749984    6.53807809178887
C        11.40391445105307    5.95784457463568    5.94563487041460
C        14.50457633299079   10.77705789681517    8.84467937201867
C        15.80225472665673   10.17809776512319    6.87081805014650
C        14.34407308526069    2.26541223797141    8.31948672308760
C        13.51129791375344    7.62468498446383    2.85699716221900
C        14.92801704752788    5.63487995517320    5.64596451045610
C         8.78267801438813    6.93839715688990   11.59510220874389
C        10.11086726223623    6.89679452668178   11.98766451691168
C         8.46015603695066    6.93815020562708   10.24860295216663
C        16.53550830201777   11.32292496670521    7.00507711194509
C        10.10616566677075    8.31594538834283    5.29191136400969
C        16.26942121831911   12.22095098959966    8.05064143047176
C        15.27757801276127   11.95196239697573    8.95083187724989
C        10.82531158249650    6.10441022768226    4.69813116687177
C         9.45821067705522    6.91312269163967    9.29060862871900
C        10.17844412414703    7.28354001456790    4.37016782052309
H        15.21961466007618    6.96136586992743    8.64059090758784
H        13.03496274925936   10.10153733252373    5.77942421441430
H        17.97456733058602    3.16769130351822    7.70916022162063
H        12.15111976496137    6.79690873207487   11.33722134259801
H        14.63085326548476    5.29534004538696    3.57108729981966
H        16.73729546202469    5.49026712850367    9.20441851150418
H        17.14138433053865    5.55946932020132    7.46932051573588
H        12.62907918822809    9.13477657525465    1.64412938756136
H        11.99121709028145    9.08653288076928   10.37922232033057
H        12.33344306992305   10.71217247562253    3.51530201074385
H        13.28302082687684   11.16591105630644   10.56942993135903
H        17.30163784958099    0.76611877879242    7.69303440288868
H        14.89631271609233    0.21611021793182    8.12248233181461
H        10.63752160165618    8.97957220631811    7.25974344941770
H        11.90626798160921    5.03505229067249    6.21521576181673
H        16.00959445108010    9.48884989172486    6.06507564652324
H        13.29851867158184    2.07589117474994    8.51392623976274
H        13.64142946491592    6.92341290176884    2.04515764862229
H        15.37567641115095    4.66735562399029    5.81902666977775
H         7.99847686745053    6.95419462547785   12.33808811274028
H        10.36574713631400    6.87225315637837   13.03700629141206
H         7.42464108879307    6.94750617088276    9.93997553432841
H        17.32803084784976   11.54394152867886    6.30531323994068
H         9.59864227555982    9.23440278017277    5.03526342837299
H        16.85763109711665   13.12237795498521    8.13835502479110
H        15.07031949277548   12.63359138979453    9.76318118356458
H        10.87987663577000    5.29916246099760    3.98050082465587
H         9.19601224919034    6.88964450184487    8.24257307482132
H         9.72927669472056    7.40025605608785    3.39503014929516

