83
CSD_code = IMACEG | q = 0 | S = 0 | Stoichiometry = C44H33Br2FeN2P | MND = 5
Br       -4.20902952385798    9.01152413862594   14.62751566643137
Br       -1.90980002445280   11.68644340054174   13.44029767326444
Fe       -3.56156632351493   10.19833087155673   12.67844007372339
P        -2.00882785291759    8.63653407034875   12.30848167030216
N        -4.93999556258205    9.07254903312879   11.64819806108460
N        -5.08861582208545   11.39480099260242   12.99179031635460
C        -0.58350773431085    8.39357521729717   13.43275286625283
C        -6.22806401661568   11.04055622728092   12.38466773495190
C        -7.35713526226516   11.84154499825592   12.40428980241553
C        -2.76905089554450    6.95911948363809   12.29407491529943
C        -6.26689787548650    9.69566614736547   11.70962569570256
C        -5.99778184262531   13.14299859333617    9.26211183624929
C        -4.43238217939347    8.74632661919293   10.36278262099507
C        -4.08237838037695    9.30858964582733    8.05012614454869
C         0.58718631640521    7.78442114136813   12.98526653113354
C        -5.08486305806739   12.52331908128689   13.70057129228009
C        -0.66534088618423    8.81373892904281   14.75726169990803
C        -0.79892255076342    7.53758257320644    9.99073393735373
C        -6.17259291582105   13.36919473298220   13.78324624728731
C        -0.15528273811898    7.63184189877463    8.77147316004076
C        -3.49847213627004    7.08416588538810    8.85805864451841
C        -3.69635911647552    6.59827602245078   11.32648316009279
C        -4.46859554525765    9.69122524594694    9.30766399135202
C        -4.09079591050788   13.13075366345244   10.71720452187526
C        -2.53284440103681    6.09815937913575   13.38353739593945
C        -4.16479098839493    4.52895967952130   12.54763399258032
C        -0.13716123000980   10.02078084889705    8.95901674420893
C        -3.90148657616518    7.48607380152919   10.15818925050227
C        -5.80125251759567   11.80322223349521    8.97787078971457
C         0.16077775738291    8.87298613610920    8.24475234453932
C         1.64848092137454    7.59727704228728   13.85098148458547
C        -4.76386642640718   11.10851388678303    9.58756248763521
C        -0.77570547139392    9.92755791211855   10.18195349893149
C        -4.42678013783439    5.38769781592411   11.44830902721827
C         0.40114802499043    8.62537018719459   15.61728049160713
C        -5.14614113878484   13.80722220221875   10.13024748813682
C        -3.22545484887267    7.61369864407373    6.49078231530536
C        -7.33316308201177   13.03666662923847   13.10342502465090
C         1.55999916077828    8.01740315514068   15.16781895835906
C        -3.19574222987490    4.91085324216780   13.49704916636020
C        -1.13568720798239    8.68789265111162   10.69769814658037
C        -3.61914157168905    8.00619094691050    7.78612568954442
C        -2.61871531892894    5.44548188142914    7.31613695180323
C        -5.43823263356558    5.02579160407853   10.53049864774556
C        -4.89401947804806    3.32781869213448   12.66772328907201
C        -2.98489382867030    5.79792006169075    8.58444931898674
C        -3.91326719143329   11.78382028728280   10.45696127668777
C        -6.13059734659293    3.85767315777947   10.67962675316607
C        -5.85245240211751    2.99634193741222   11.75248483530042
C        -2.73614697181324    6.35979891425347    6.25871242451829
H        -4.95412007212087    8.21265552942331   12.20158125765302
H        -8.24469166563445   11.51777972853411   11.88283179272825
H        -6.93749293593987    9.05479822694819   12.29427753518126
H        -6.69376141193020    9.79534954487484   10.70764022015477
H        -6.81592105743706   13.67363735355555    8.79792042040828
H        -4.09898580795270   10.03219216550941    7.24795376626628
H         0.67837505554362    7.45920882048815   11.95908071088723
H        -4.16803908245978   12.75440490456173   14.21989033643604
H        -1.55916894167111    9.28844828179118   15.12741926339922
H        -1.03784405440961    6.56570561521800   10.40001219812187
H        -6.10495894503920   14.26943210466062   14.37149386746109
H         0.09572679100488    6.73201074043341    8.22871040951305
H        -3.40953810880738   13.64110609146335   11.38131900238720
H        -1.82237786261735    6.39624557827997   14.13982852261439
H         0.13056224293656   10.99065332886860    8.56634369872622
H        -6.45856281100438   11.28782165289577    8.29138485214590
H         0.65172917642910    8.94293131991573    7.28543101869685
H         2.55152562052643    7.12462733327800   13.49159405692494
H        -0.96785615018209   10.82593173532003   10.75223469988276
H         0.32318074477974    8.95995845761254   16.64060461639070
H        -5.29918626715160   14.85479830504442   10.34086238776725
H        -3.31757717959786    8.32840135249128    5.68572858423440
H        -8.20081379577329   13.67701221590353   13.12986660357739
H         2.39463162320595    7.87382851832512   15.83833215169085
H        -3.00178465268916    4.25763764130718   14.33475989931248
H        -2.23168135898458    4.45611535925554    7.12140584508889
H        -5.65977860474680    5.68734751574759    9.70518915656068
H        -4.68249875607038    2.67948663879324   13.50548965065085
H        -2.88856421735653    5.08559530685106    9.38978609541471
H        -3.05621180000197   11.24623941908943   10.86100489567570
H        -6.90105885872405    3.59123426285831    9.97104364202160
H        -6.40812018153736    2.07569445663348   11.85119565658392
H        -2.43522770275846    6.06525895110263    5.26433712847333

