108
CSD_code = IMAJEM | q = 0 | S = 0 | Stoichiometry = C45H55BClN4PRu | MND = 7
Ru        4.21170378052065   11.54910915294824    8.89263298038183
P         2.22543723130861   10.44075066709814    8.20823162105834
Cl        3.51964793770286   13.40965325551034    7.66246803317497
N         6.55733811904633    9.28622307224892    8.65692777641505
N         5.65186950122720   11.04980761729183    7.29321825825606
N         6.55288275956546   10.53625985037146   10.77818063890506
N         5.95297096230367   12.51966030713180    9.56557526411737
B         5.74822704771602    9.54105494767902    9.93115567440170
H         4.68809823576073   10.14149855860038    9.53926851685364
C         6.53095207258572   10.07333795731553    7.55351543884555
C         7.60489721783361    8.41896902925293    8.50727040251841
H         7.82169545069524    7.71244380717901    9.28583402514243
C         8.24665956304304    8.60867356035104    7.31924702360912
H         9.09242485250768    8.06521588320357    6.94796292882659
C         7.58153456659066    9.68061455363148    6.67093117139624
C         7.72832204795995   10.37502174379308    5.47581593304627
H         8.50158604504176   10.11601023088239    4.76778488740655
C         6.84858229562153   11.41369880288932    5.24029107807072
H         6.91919223497835   12.00366922414498    4.33996071595647
C         5.84460885582071   11.71433018816591    6.15800391913339
H         5.16846225941078   12.53774592762680    5.96429688593464
C         6.68362778174151   11.84776753605102   10.46102904454657
C         7.48827683263874   10.26359102090893   11.73857410314190
H         7.57372780334168    9.26662989792247   12.12773964909419
C         8.20931041744171   11.37486031416655   12.06559152661930
H         8.99580696575357   11.44271010462639   12.79034457828398
C         7.72298939529389   12.42602509310378   11.24575420667871
C         8.01832451588092   13.77026293203326   11.04500491798634
H         8.78662356706506   14.26663158386888   11.61872520983049
C         7.29592874439581   14.43750776621350   10.07552677718214
H         7.49247539406049   15.47577783909561    9.86027575916283
C         6.28219994664668   13.79037791464977    9.37166028542289
H         5.70939733534369   14.32325978876417    8.62446121993299
C         5.23778582636677    8.24177468435610   10.70294217519425
C         4.84528921112472    8.31669256584062   12.03989940277181
H         4.96241073242912    9.25323710459525   12.56810577633556
C         4.30667124159913    7.22740179627435   12.70070113891098
H         4.01407316101312    7.31447337125725   13.73793773821967
C         4.13635067474359    6.02590705750592   12.03324501387482
H         3.71157319522724    5.17397113865543   12.54437538254157
C         4.50812269340704    5.92867279188161   10.70306404353164
H         4.37392038335593    4.99661966867924   10.17151990840320
C         5.04677632803768    7.02370412973816   10.05062213312305
H         5.32307176237284    6.93379970632213    9.00885704191088
C         3.55906821892451   11.89065037259608   10.67736835917348
H         3.24865599070504   11.04107324758498   11.30287319811368
C         3.86861285307999   13.02880717432513   11.48567949346366
C         3.86494885917682   14.33756397984465   10.97212331040149
H         3.52680615454847   14.50012573411673    9.95917123653200
C         4.24549646222372   15.40498409776548   11.75814521741598
H         4.22807870246378   16.40478432298367   11.34928677280678
C         4.66257594955897   15.20095048786621   13.06478057860128
H         4.98001101436217   16.03677255379802   13.67089199392202
C         4.65924556666598   13.91944037407687   13.59740729998347
H         4.97396893088436   13.75932682631610   14.61884990427320
C         4.24590478494896   12.85235486847313   12.83058824215969
H         4.24137305301183   11.85528368433013   13.25020064500694
C         2.37029060998485    9.48615271996044    6.60633865471149
H         1.43534219919176    8.93965025793991    6.43775297214729
C         3.52561834619259    8.49070194220898    6.73030833744067
H         4.43919995533076    9.04040606981435    6.95330898568008
H         3.35323886273783    7.80039702687231    7.55803776956030
C         3.73005581668877    7.70872457995874    5.43658278288260
H         4.56671504317848    7.01653273574534    5.55565587795338
H         2.83610834535974    7.11927883244396    5.21519029414039
C         4.00402608391400    8.66761833753934    4.28383374813882
H         4.14673677618836    8.10988467966783    3.35580051996487
H         4.92253687705171    9.22413562564271    4.48558417214660
C         2.84044383619141    9.64091375300867    4.13411545121243
H         1.93508024963684    9.08127180775052    3.88316404160974
H         3.03868720274521   10.33742584058596    3.31686887041998
C         2.60782374514010   10.42517584880069    5.42356507503576
H         1.74772220582877   11.08179312365267    5.28205494442024
H         3.47656566901038   11.05223171780877    5.63184705377088
C         0.78576186792783   11.57247669574084    7.84570300923014
H         1.18156746764506   12.17520924817311    7.01541542951974
C        -0.51861200286585   10.92182391770659    7.38969808048313
H        -0.34236109798972   10.19414233066514    6.59584330157319
H        -0.99195539265961   10.40505759595594    8.22616567827117
C        -1.46528976452837   12.00740236234791    6.87626767822178
H        -1.01585296064426   12.49469717912144    6.00797955682699
H        -2.40643249311920   11.55423180685835    6.55524590454567
C        -1.73340258064933   13.05212288550747    7.95591520084382
H        -2.25490364801025   12.58063364630411    8.79284821469714
H        -2.38263677582993   13.83478212397894    7.55812935012207
C        -0.42567773790606   13.66012721799717    8.45596351663338
H        -0.63080126591517   14.37852958133466    9.25200192518805
H         0.07019223112434   14.19346039038692    7.64303131586132
C         0.49917848267252   12.56303723817567    8.97614515697692
H         0.01587363121327   12.06670831555198    9.81668798073697
H         1.43803334506559   12.99687350143103    9.32924447312221
C         1.65387267880999    9.09201770682651    9.39509968317368
H         2.60817610855829    8.70079296553504    9.77939333344428
C         0.85817252155838    7.90657744428554    8.84059434760329
H        -0.14249061800215    8.22880751587651    8.54775301317194
H         1.33637856631060    7.46159085520381    7.97029640124793
C         0.74995817776878    6.82796291752589    9.92112107919849
H         0.19308280616371    5.97395000667532    9.52830498142862
H         1.75419870206102    6.48420314981488   10.18093118991499
C         0.06339103200978    7.35995026830512   11.17414221526331
H         0.04566462699975    6.58562327900719   11.94354799532479
H        -0.97174608662311    7.62045378935029   10.93910538267314
C         0.79124548875158    8.59657139873538   11.68999969198490
H         0.26475128764436    9.00507559498523   12.55549035727171
H         1.80020415797430    8.32151662652074   12.00572740694884
C         0.87109533281504    9.64839782126951   10.58652228201414
H         1.33708093293948   10.55661804556022   10.96497028827625
H        -0.14418233265895    9.89565780976024   10.27130856893947

