75
CSD_code = IMAWIE | q = 0 | S = 0 | Stoichiometry = C37H31ClN2OP2Ru | MND = 6
Ru        3.99598729706418    1.68288581440702   10.94523162816318
Cl        3.43497091909700    2.20174148939572    8.71139517459493
P         5.17391931784891    3.61978604541742   11.13199758899926
P         4.75505337991616    0.60203436952541   12.79136122889293
N         5.81309256822860    0.97004048197748   10.21704776127212
H         6.01194459383777    0.02833902181457    9.87965499897242
N         3.18677949219275   -0.27799485368345   10.41861430098960
H         2.24953217381606   -0.21001511785702   10.00958708684983
H         3.81236285919009   -0.49131522809360    9.63243170525850
O         1.35658233381240    2.78475687279616   11.82927183744707
C         2.37798239406840    2.35478950451587   11.51899928984895
C         6.85455696015724    1.78803741750808   10.05572540418510
C         8.09564255908816    1.36257622177536    9.52776359981911
H         8.21513593023466    0.31870334641904    9.26414300557845
C         9.12620377503289    2.24660320978541    9.33823591249852
H        10.06222731461963    1.89110562143258    8.92942229252788
C         8.98232950840912    3.60011121900892    9.64215150855609
H         9.79198092047271    4.28863250264895    9.45317370136634
C         7.79145308898119    4.04892056666757   10.17296965074446
H         7.64727820198200    5.10213204779780   10.38099210689007
C         6.75056831446695    3.15831129067147   10.41709119811658
C         4.63541757775239    5.11088338336859   10.24968844363935
C         3.91839832507891    6.11858933641087   10.88719020239800
H         3.72018637181009    6.05148553989632   11.94828349695732
C         3.46228684212461    7.20260278624935   10.15955126357991
H         2.90663880958966    7.98585340404837   10.65507950062025
C         3.70928129529327    7.28214832618956    8.79861286303752
H         3.34586218674220    8.12832126319492    8.23367699507968
C         4.41620772696821    6.27537757498986    8.16068856260353
H         4.60155458823542    6.33359105131137    7.09813479125243
C         4.87855326430187    5.19048879752204    8.88083939800207
H         5.42070095646014    4.39333272641891    8.39075705252359
C         5.45232564040527    4.24398529767016   12.82833868936859
C         6.67153571834377    4.75237608014539   13.26256426748502
H         7.50702415820913    4.80284332642734   12.58014633239035
C         6.82256861300559    5.16834788897626   14.57415740353669
H         7.77438167771708    5.55776674803278   14.90596664014648
C         5.76198247921152    5.08393600265843   15.46096971312378
H         5.88585054904951    5.40708304021893   16.48411226391622
C         4.54353834366150    4.58134267226201   15.03444282846684
H         3.71439283545335    4.50975199023094   15.72303597713258
C         4.39123461170105    4.16013819802531   13.72654256346833
H         3.44679921884223    3.75490257029717   13.38589580210276
C         3.24690753601623   -1.28923860782911   11.43128874483318
C         2.58691002190277   -2.50266548257463   11.27536724255964
H         2.01699406930631   -2.69109313034696   10.37580449829125
C         2.65307544466590   -3.46248351679413   12.26971121456904
H         2.13537952212331   -4.40097312104069   12.14201917998891
C         3.37756653675288   -3.22058205036377   13.42713122692901
H         3.42450597349481   -3.97131163577969   14.20122517908179
C         4.03061949140211   -2.01391784909762   13.59360332113965
H         4.58661612818462   -1.80744251861500   14.49770931578405
C         3.97087045615993   -1.04140246362834   12.59956242461274
C         4.31284054185748    0.96373914286224   14.52040518917963
C         5.22632474644954    1.09378284774630   15.55843107121496
H         6.28082759691776    0.94196860996477   15.37797307816547
C         4.78098967341449    1.41619126109208   16.82921071823533
H         5.49370469351950    1.51950369462857   17.63439978654292
C         3.43132225056770    1.60550142180391   17.07108959194229
H         3.09105234881503    1.85835215265614   18.06448416764629
C         2.51560324632813    1.47175917127208   16.03792441575066
H         1.46199459480882    1.61835282732438   16.22499306558921
C         2.95554531552072    1.15820956546556   14.76785412205874
H         2.25518223438270    1.06162555700458   13.94658557753003
C         6.53041602548600    0.21705217892465   12.85351701429182
C         7.39681921557542    1.27893035362791   13.10796164091281
H         6.98321583641202    2.25119014001651   13.34062539278007
C         8.76421246776198    1.09340179032016   13.04691335278332
H         9.42788160351829    1.92422575827729   13.23486916990094
C         9.28005365558161   -0.15240310705254   12.72831015301370
H        10.34847504874628   -0.29684016873345   12.66949941532100
C         8.42355316709044   -1.21020740804947   12.47238455682566
H         8.82466218126520   -2.18047244333494   12.21630561796935
C         7.05269173738099   -1.03012287455838   12.52843378514247
H         6.39088094611623   -1.85775994364215   12.31007073699270

