40
CSD_code = IMBPNI | q = 0 | S = 0 | Stoichiometry = C17H18N4Ni | MND = 4
C        -1.32533371379450    3.57649525058426    0.56469744335855
C        -2.46342048827409    2.87897654303387    1.05272437882066
C        -2.75164238288825    1.61009287558933    0.64015800603294
C        -1.91935401000803    0.94136434032892   -0.27005091252574
C        -0.79667867837200    1.56808720158532   -0.73600537695444
C        -0.47070893785948    2.87760423800094   -0.33675343242174
C         0.74808911134975    3.45922197538932   -0.73908553736106
C         2.57096553555273    4.85778533257118   -0.87661165243425
C         3.16522797001065    6.10496781978737   -0.24389527012581
H        -1.73572598628695    5.12024787802133    1.65341813611249
H        -3.11364212800711    3.38496763106558    1.75463572454237
H        -3.63287746749087    1.11032759911726    1.01718794300656
H        -2.16462039231878   -0.06068534457298   -0.58654117961568
H        -0.13506584464081    1.06097556199347   -1.42500075581197
H         1.42138552813430    2.78398292766080   -1.27433864332779
H         3.15885789577621    3.98445768929023   -0.56458889891809
H         2.64311370313699    4.93925968216304   -1.97042530309802
H         2.94769096210800    6.10491815427580    0.82887284725428
H         4.24746101140357    6.10494698866130   -0.38312611245125
Ni        0.10702203865962    6.10500817813403    0.25976946152820
N        -1.05446700770497    4.81413988144328    0.95805707673275
N         1.17838604654389    4.66139763551996   -0.49307301325488
N        -1.05438865785752    7.39589811501103    0.95814445979167
N         1.17843556349463    7.54862227359807   -0.49301150525688
C         2.57103682469654    7.35224923902391   -0.87647949048072
C        -1.32529783152534    8.63351612421135    0.56472516278772
H        -1.73563373219292    7.08979816646934    1.65352219720680
C         0.74815368133645    8.75080543379427   -0.73900806653191
H         3.15893329643106    8.22552150547448   -0.56430702091651
H         2.64325284104211    7.27091148780163   -1.97029862550365
C        -2.46342304076147    9.33101163118911    1.05269402369279
C        -0.47066791570874    9.33240759227046   -0.33672136437100
H         1.42148147590453    9.42606381767601   -1.27419743901700
C        -2.75167738760535   10.59987174185559    0.64007586060872
H        -3.11365423664869    8.82501847548713    1.75459482903224
C        -0.79666492158035   10.64190288960443   -0.73601967054861
C        -1.91938118475253   11.26860040545269   -0.27012564472866
H        -3.63295556565489   11.09960963626545    1.01704276092033
H        -0.13503935978443   11.14902004158511   -1.42499878147207
H        -2.16467261386263   12.27063138358634   -0.58665661430148

