43
CSD_code = IMDZMO | q = 0 | S = 0 | Stoichiometry = C14H20MoN4O4 | MND = 6
Mo       -0.00011589270668    0.00000298975968    0.00112340344127
C        -0.09747863117961    1.45761394930704    1.29471311003571
O        -0.15165924466545    2.35194281222011    2.01127290567561
C         2.17155305215548   -0.00000110099153    0.16355927652235
N         3.04253580943478   -0.00000211425609   -0.84692011485186
N         2.88133099617671    0.00000107838879    1.29317007350760
C         4.43878755283738   -0.00000160166084   -0.43030452158847
C         4.32423890505676    0.00000123639293    1.09044267292772
C         2.78080662569213   -0.00000183284855   -2.25339220094770
C         2.41166917133367    0.00000208914524    2.64453660557153
H         4.95033594793330    0.88769275186187   -0.81897199519756
H         4.77187368510481    0.88764777600436    1.55139545215800
H         1.70788986672940   -0.00000030763140   -2.42312416013550
H         3.21777759339008    0.88840288306104   -2.72045897419310
H         1.32542568283211    0.00000102248947    2.65150964160142
H         2.77379026443933    0.88832317704799    3.17191264033583
C         0.09763763431218   -1.45661416714405   -1.29385156254256
C         0.09781287641682    1.45660872885120   -1.29385350498950
C        -0.09730404953578   -1.45761932660223    1.29471114457236
C        -2.17155164830174   -0.00000115356692   -0.16389420250876
H         4.95033558174640   -0.88769739753095   -0.81896884993961
H         4.77187409647214   -0.88764341164561    1.55139813573460
H         3.21777596167804   -0.88840742207399   -2.72045907785829
H         2.77379177211713   -0.88831710355660    3.17191396606099
O         0.15151024564960   -2.35071903690890   -2.01070057034239
O         0.15137087120000    2.35072339836162   -2.01070888537344
O        -0.15179844082325   -2.35193855796332    2.01126456400185
N        -3.04249323045414   -0.00000214059460    0.84664881961520
N        -2.88136962509448    0.00000105258730   -1.29345050535414
C        -4.43876441797456   -0.00000160904144    0.43009247004949
C        -2.78077668795764   -0.00000184162893    2.25314589605825
C        -4.32426542115352    0.00000122942076   -1.09066075327459
C        -2.41168883527279    0.00000206523493   -2.64478629527235
H        -4.95030257012555   -0.88769466232150    0.81879969204368
H        -4.95030291652346    0.88769001649005    0.81880283466302
H        -1.70787089303892   -0.00000032392632    2.42292503508185
H        -3.21775809560557   -0.88840597900377    2.72020807329327
H        -3.21775971171641    0.88840144363968    2.72020794948969
H        -4.77191427738892   -0.88764151410096   -1.55160332517284
H        -4.77191384894013    0.88764587554175   -1.55160063853485
H        -1.32544418970135    0.00000098357268   -2.65171775494564
H        -2.77379654689540   -0.88831943191393   -3.17216390175895
H        -2.77379501765279    0.88832547753394   -3.17216256765905

