57
CSD_code = IMEBEI | q = 0 | S = 0 | Stoichiometry = C20H18LaN5O13 | MND = 10
La        8.19222977656579    2.28058780742486   15.87982817301761
N        10.76437784005098   -0.01723299425577   15.74800637732042
H        11.38499273671928   -0.65968913557874   16.23922170625845
N        10.72544547550564    1.29624422958238   16.02214803222548
N         5.26332427136560    3.66656373521861   15.16168902400815
H         4.43073318906468    4.24790194767367   15.23843199243483
N         6.17001069825565    3.59240576916265   16.17096131820997
N         7.54645808861634   -0.02853798752515   16.75379252709365
O        11.53502988711939   -2.54892371483136   16.07383669835862
H        11.96699375782766   -3.34335275665579   16.41574824718098
O         8.89831621565029    0.31252910452105   14.54232414031180
O        10.48016657597208    4.03727843183041   16.30372609949392
O        11.98529183741457    3.94512535970031   17.86883706625684
O         3.01617709896679    4.52639012599870   13.99330311045215
H         2.18061975983758    4.97719317764101   13.81189154924640
O         6.55264290952072    2.26668293663237   13.95648992411347
O         8.15452574600778    3.25187596805177   17.82618917647056
O         7.10025485566026    4.44812067826629   19.39148878701212
O         6.66326475581921    0.73223245436976   16.35894770200845
O         8.56202594381856    0.46202786702560   17.25658749434204
O         7.42793080106710   -1.22049095950329   16.67031052842090
O         9.86331188862695    3.43048624278395   15.03910930267168
O         8.67386468835360    3.96518388090009   14.83845480451172
C        10.47386821071831   -2.90683109662634   15.29685787405162
C        10.22741430853096   -4.24999665870480   15.03689486232040
H        10.88021504762858   -4.99670429078151   15.46997387574225
C         9.16233246354460   -4.63871036485294   14.24785572131434
H         8.98983101677170   -5.68865808825692   14.06713173955826
C         8.31989222693432   -3.68405398738464   13.69925403928177
H         7.48364249548625   -3.98344956660917   13.08825712508019
C         8.55139682074590   -2.35075223597143   13.95385737938623
H         7.90251299550413   -1.58528832663936   13.55764683364005
C         9.62478708658449   -1.93291794737490   14.74763064862278
C         9.72161788362223   -0.48652962219804   14.99236084599093
C        11.52690591549230    1.86760278502162   16.83367811795081
C        12.59975224984214    1.19879044634441   17.63142747785800
H        13.32378918582995    0.71334661976326   16.97701183751088
H        12.15880932617958    0.44734854235683   18.28644803140293
H        13.10447041947529    1.94447853589709   18.23967761796919
C        11.34782222474414    3.34892721067030   17.04096490018776
C         3.36569614957196    3.76050579159366   12.92013023559878
C         2.53863862250205    3.72311617354632   11.80229300473550
H         1.62729294366924    4.30697633330910   11.80463838904564
C         2.86347701346734    2.95714162867726   10.69955350155199
H         2.20386447073140    2.94612990621637    9.84549444720296
C         4.03101000032625    2.21047522496821   10.69674934069772
H         4.29122846324874    1.61098863787192    9.83902297497146
C         4.85700140430426    2.24242358873219   11.79989864419414
H         5.77436184862823    1.67511357012950   11.82968158817690
C         4.55056737054174    3.00820843429153   12.92779736102373
C         5.53073589566526    2.94672405736133   14.03907332005977
C         6.05062269025140    4.22168697749716   17.26877977462360
C         4.93831982156694    5.13038309998552   17.67021566833619
H         3.97556597028218    4.62243112905842   17.60734168152366
H         4.91462938610664    6.01036854565885   17.02702001180151
H         5.11736601199541    5.44266017068487   18.69731356021139
C         7.21597326170322    3.96166260734132   18.28404378698766

