91
CSD_code = IMEFUB | q = 0 | S = 0 | Stoichiometry = C43H41N2NiO3P | MND = 4
Ni        3.33783542874204    8.65395259545459   11.55006994652306
P         4.74245710141478    9.79559696186402   10.39257546166617
N         2.09795414043706    7.64468086865184   12.68522612635094
N        -2.49686876098753   11.37970519945994   14.00088340543829
O         2.55611897831321   10.33826283356374   12.09469439957907
O        -3.15814769572866   10.45651510434664   14.44959729583394
O        -2.89159734558248   12.53287091958004   13.94654298508642
C         3.95307862853786    7.12376561601184   10.68401807874231
C         1.03985057907281    8.15312590831242   13.21588189864103
H         0.44987798209384    7.52192246352286   13.88705257426409
C         0.55664953358418    9.49244505800787   13.07782234372378
C        -0.70939708581110    9.80107418984759   13.56486460065861
H        -1.33819220378270    9.02491990015585   13.97826119346851
C        -1.19596393954156   11.09449544370326   13.51456480812348
C        -0.39976570070170   12.13184243159105   12.99154697704068
H        -0.80622574930014   13.13181225896523   12.97310322618170
C         0.84932584673788   11.86198291137238   12.52747784912204
H         1.47924436556350   12.64125295797174   12.12464817146230
C         1.38766205421629   10.53790411006167   12.53306212944611
C         2.46363022140170    6.34059812669950   13.10852580918110
C         1.72930307533596    5.21731672587546   12.71843991020833
C         2.12611521086075    3.97529832545604   13.19721482608346
H         1.57126401055972    3.09488957527214   12.91322998470938
C         3.21098958454138    3.84876455445911   14.04010776887659
H         3.49676325544791    2.87533370487466   14.41005934798946
C         3.93370804223718    4.96740333569052   14.41359818255457
H         4.77697369470911    4.85225300790636   15.07521588974229
C         3.57927900119391    6.22480257857455   13.95442906394189
C         4.33287580640369    7.47099568444988   14.36692573935242
H         4.32625747590215    8.16837351436730   13.49521358189634
C         5.78944314120037    7.21096498900334   14.74675383713476
H         5.85622382620214    6.70612925927041   15.70800757477305
H         6.32287264899316    8.15599157292013   14.83174852953673
H         6.28976783279582    6.60105199268104   13.99851234642468
C         3.61724053704350    8.15765612867079   15.53539616949103
H         3.55223475929235    7.47843962910226   16.38370569142934
H         2.60944458680596    8.46040248168152   15.26144560967219
H         4.16564327632921    9.04555117947315   15.84360295522339
C         0.53905203622189    5.32308182625514   11.79195960416726
H         0.50588786465521    6.33639145169050   11.37858517855113
C         0.66049930992135    4.34660424136326   10.61969282949639
H         1.63971945569150    4.43376202018973   10.15614270714987
H        -0.10082896736830    4.56753553481349    9.87455664020614
H         0.52167689099602    3.31979455134870   10.94757277029215
C        -0.76433476500016    5.06213055098040   12.55315759372856
H        -0.75826930265061    4.06358913523887   12.98414914125460
H        -1.61383647361458    5.14150478477022   11.87842944105547
H        -0.90255671371372    5.77722628332238   13.36081493375671
C         6.37111559271430    9.18243995042207    9.85645139690164
C         6.41299358966835    8.23115111828758    8.83946407605968
H         5.49269863627051    7.91550351265803    8.36814991251880
C         7.62049217171250    7.69625843059501    8.43600324794287
H         7.64431103902302    6.96021914487715    7.64625936574414
C         8.79756615533047    8.09859185669913    9.04782052641808
H         9.74148779715260    7.67788896036646    8.73447713604718
C         8.76118322161362    9.03892143068412   10.06308981409530
H         9.67691805246810    9.35413760188457   10.54164662931215
C         7.55299618907325    9.57777191050705   10.47075830421986
H         7.53001238223173   10.31210946805548   11.26357767693495
C         5.14178744892010   11.37709840822648   11.20324497614800
C         5.48339171147569   11.31910592704222   12.55184510491894
H         5.49395467188236   10.35690766486679   13.04953926700181
C         5.78523528918281   12.47419029097360   13.24645947775227
H         6.04783515866400   12.42515014820770   14.29327288356246
C         5.73849143035676   13.69925502739189   12.59944568327375
H         5.96580931216744   14.60528067985737   13.14145371125796
C         5.38676446268799   13.76245526682468   11.26181150860632
H         5.33920621905438   14.71861522122555   10.76109799091831
C         5.08640219189559   12.60629253624349   10.56126502694565
H         4.80095369916580   12.66475055420021    9.52073721438030
C         3.97694172539236   10.28410488666544    8.81870761442180
C         4.71180776160474   10.76677435137828    7.73993760143541
H         5.78854790381017   10.83862383758253    7.81035597047137
C         4.06124553820022   11.14534120036827    6.57952721326977
H         4.63189377397978   11.52055286813769    5.74255742408551
C         2.68156845450957   11.04560740227282    6.48741497062568
H         2.18012575052036   11.34250008913279    5.57822911665109
C         1.94639035303436   10.56346239390330    7.55798807464903
H         0.87158748129704   10.48467436651421    7.48473472278898
C         2.59373155004709   10.18331041132252    8.71924477906144
H         2.03132262462015    9.80460162871916    9.56756525573809
C         3.19723015425051    6.71170397384967    9.58710089185970
H         2.32773112647289    7.27855528482622    9.26796980942645
C         3.53908553959831    5.56848459217388    8.88094348188422
H         2.94624293815200    5.26964053424891    8.02711177489461
C         4.63777698607584    4.81790281810712    9.26046350096184
H         4.90115782766706    3.92554130365421    8.71151622150875
C         5.40142737470908    5.22414821487886   10.33969546691755
H         6.26783597844308    4.65044161273843   10.63655743201178
C         5.07319952223923    6.37617550037921   11.03499503955764
H         5.70840773360879    6.69059313961753   11.85142557641920

