79
CSD_code = IMEGAI | q = 0 | S = 0 | Stoichiometry = C31H38N5NiO3P | MND = 4
Ni       -2.20633470767320    4.12374588536169   12.68052529345773
P        -1.13753773136721    3.04508759879895   11.15986491169236
O        -3.65231921413220    2.88419543123241   12.48932094359952
N        -3.14060188388154    5.12141365241998   14.09166739127801
N        -8.41198824760777    2.30174695567741   15.18945214097899
N         0.14200594150118    2.90881087342573    8.71797635657827
O        -9.12802032712009    1.36902939119871   14.86856051127925
N         0.99297904379628    1.43785415480720   10.45161560556933
C        -1.86968825925245    6.24128671284729   15.85097044856848
C        -4.73813677356459    2.77899796842107   13.13189781165474
C        -1.38983791339428    7.42276892140239   16.39771788954772
H        -0.83601613268620    7.39776813188269   17.32245829624793
C        -2.33370081563239    8.68848274452489   14.59620265532737
H        -2.51078410725339    9.64331668492927   14.12818952437313
C        -0.52744013660420    6.32041385108766   11.94289646675498
H        -1.26541413064461    6.54477089107137   11.18293078879566
C        -0.67792953617915    5.19854992163765   12.75615203950536
C         0.45380538595225    2.16644003645710   11.58049234238537
H         1.19167795139055    2.90269038359301   11.91762252773898
H         0.26871538491369    1.46256878486904   12.39964505311427
C        -5.64232553603224    1.71637821089356   12.82257112169989
H        -5.35140148116897    1.03415968719049   12.03790343326993
C        -6.82087493855742    1.56225616908714   13.48320987612880
H        -7.50058862458478    0.75753174514111   13.24703671123518
C        -2.83050777689470    7.53196216672816   14.01487859255912
N        -1.12711599710149    0.94415694959413    9.37356239048623
C        -0.52024591414017    3.85189860555662    9.59441442936906
H        -1.36772057496469    4.29521664455521    9.05978950627469
H         0.18082767379471    4.65227462608658    9.85473861101730
C        -3.63129102998446    7.56852559132609   12.73229488932613
H        -3.48300192051547    6.60358944716823   12.22058813280405
C         0.56264504166998    7.16247464432094   12.09264892701356
H         0.65456833452224    8.03688848086676   11.46353871869628
C        -3.18570899062870    8.68668479263986   11.78919270602788
H        -3.54431873728133    9.65283089902903   12.13618782203477
H        -3.59715190581027    8.51747586736608   10.79609643972637
H        -2.10207722777232    8.72358968405439   11.71683527217742
C        -5.12540317018272    3.69109481572958   14.17530133597416
O        -8.69017191309953    3.10301948315206   16.06615168979280
C        -2.59264335728591    6.31104744663129   14.65629220574246
C         1.31473751967703    2.32321497623556    9.34521520992953
H         1.85007627229594    1.74106105886619    8.58855110461311
H         1.96460022991524    3.12462609858256    9.70616586673993
C        -4.30395249831279    4.79617329920011   14.55034297344760
H        -4.73716219238814    5.43931381511945   15.32251902467510
C        -1.97943081222104    1.59586254199446   10.34539636205291
H        -2.26715218225275    0.87410016890297   11.11650535676181
H        -2.89168677855552    1.94527335139295    9.85093250396333
C        -7.17967501191374    2.46596279907907   14.50186319891253
C         0.07788503749370    0.40884235878471    9.98397923806595
H        -0.20027719690155   -0.23138083757723   10.82516712827763
H         0.60024647963172   -0.19421645292157    9.23457960026156
C        -6.34059201469900    3.51145513238329   14.83361843739349
H        -6.64190757548668    4.19176326394872   15.61805136767684
C         0.33661562677188    4.89932645701133   13.66421573530084
H         0.27797664319772    4.00335916323258   14.27126439630033
C        -1.63265086504274    4.91175445701086   16.53196963856013
H        -1.71593109765473    4.12503293616985   15.77038516255948
C        -0.75111960119232    1.84197989074500    8.29485631984339
H        -0.23789562349596    1.25494742518707    7.52661759970235
H        -1.65395279948123    2.28159953307302    7.86299762847132
C        -1.62171779074171    8.63591884876313   15.77950475903829
H        -1.24794010604939    9.54652922489351   16.22352553326433
C         1.53894445294972    6.87965565475582   13.03074209379642
H         2.38946472790722    7.53526314540585   13.14513136779433
C         1.42952993857708    5.73941342059710   13.80625366781196
H         2.20477587369035    5.49545456650988   14.51946603141185
C        -5.12478229924239    7.72423691602575   13.03792558959852
H        -5.29385935062277    8.61311648179831   13.64249459539325
H        -5.51074024378638    6.86277806547124   13.57722007175901
H        -5.68648814715655    7.82345538697657   12.11142780258036
C        -2.69581352861923    4.66047977512894   17.60649036766873
H        -2.71138421494051    5.48221482470883   18.31957883484928
H        -2.47291922389136    3.74067678527267   18.14306031729361
H        -3.68666972252650    4.56574352516941   17.17000155991947
C        -0.24135564073339    4.82199947811967   17.16213755465126
H         0.51476853789012    5.19782094809038   16.47862757464372
H        -0.01177970596420    3.78624477744453   17.40398465317377
H        -0.19341086066540    5.39625180570685   18.08404196205121

