74
CSD_code = IMEHAJ | q = 0 | S = 0 | Stoichiometry = C27H39N4O2PPd | MND = 4
Pd        8.55478824426171    3.61773525531548    8.53222908214203
P         9.68281111260917    4.92271719050999    7.09854933568924
O         7.28984259612961    3.52163906718560    6.79837086728978
O         6.97574568570257    3.09765891891439    4.26016720298183
N         7.32537456553832    2.31436620662368    9.48577610304450
N        10.71913721825618    4.88786523232208    4.54014754271813
N        11.66448554772989    6.53846188604024    6.05968945124088
N         9.42865778399505    6.85719871642107    5.15208890360874
C         9.95881395044381    3.70986342416872   10.03105014510592
H        10.16163708726523    4.76066085329104   10.27362229877978
H        10.89154518341096    3.26174568752642    9.66155037905252
H         9.66746365625258    3.19730167619887   10.94971048536575
C         6.46497858063321    1.58630166681419    8.85155353594517
H         5.80482559469301    0.95980107419151    9.46313134920648
C         6.24987170115558    1.46332554903113    7.44740772257494
C         5.49843550487502    0.35367965976445    7.00205885547487
H         5.13574499675557   -0.34963391987729    7.73887592046749
C         5.25379528270531    0.14381126404796    5.67699206920642
H         4.69008783470424   -0.71618099642374    5.34984671771003
C         5.74041310903141    1.04647310069116    4.71864021367485
H         5.54377027575309    0.84948794635868    3.67592568221219
C         6.44388906472284    2.15326780792910    5.10747012316637
C         6.71394565138454    2.42455493258386    6.49808360794829
C         7.28381236549490    2.30989343192379   10.89535355524822
C         7.69054322153477    1.17915475891709   11.61417393754165
C         7.58750317635198    1.20330789175086   12.99857362992693
H         7.88933773778795    0.33932606473011   13.57087939047170
C         7.09885789335409    2.31538038306514   13.65440737266218
H         7.00996525343665    2.31186256774490   14.73074112791765
C         6.73713504622498    3.44156799440017   12.93665613711250
H         6.37455423117896    4.30636655679822   13.46810937268364
C         6.83044647537726    3.46687514723822   11.55386963335785
C         6.43330307090046    4.68815006892168   10.74944740451071
H         7.10399459813605    4.75590349099549    9.85438278132465
C         6.58936320784850    5.99520419072089   11.52595338695137
H         5.83447328862024    6.08722724386891   12.30390221804498
H         6.47238803037178    6.83788425942766   10.84788058777432
H         7.57604735328488    6.05291877253235   11.97929941706375
C         4.99018303790335    4.53641201050079   10.25379589812137
H         4.89158107522250    3.67235743083724    9.59969068826025
H         4.68998709295457    5.42071015309065    9.69586575150152
H         4.31385267088351    4.41055023649675   11.09811347841243
C         8.28950291606386   -0.02331803001895   10.91857684053911
H         8.34239772391254    0.17702505023690    9.84287647306178
C         9.72152863134700   -0.25798341164940   11.40635593120747
H        10.32230061982375    0.63307888605835   11.23963383406386
H        10.17008666388526   -1.08440702993663   10.85927039106731
H         9.74285264075545   -0.49681911739646   12.46660854384957
C         7.43153197936566   -1.27149039235849   11.13425021651824
H         7.38495768822382   -1.53142327255202   12.18906296701702
H         7.85322460152469   -2.11449727660508   10.59112408667900
H         6.41599808301999   -1.10794175967719   10.77933552393675
C         8.70077224277775    6.25861534911730    6.25459461823596
H         7.77498060459854    5.81078015890793    5.87969966362574
H         8.44559580844754    7.04107748497763    6.97942728183931
C        10.17382217865167    4.00605713223912    5.55540691346794
H        10.92024758442185    3.24115638874640    5.80572141670996
H         9.28071629767590    3.51240543864381    5.15663556046856
C        11.26536718061027    5.89507806371429    7.29742813572948
H        11.12992882336239    6.66293932742514    8.06720213886230
H        12.06857457650085    5.22531178975541    7.62378957443085
C        11.91508047901782    5.56899456433874    5.00405379820424
H        12.35346759242580    6.10351664155038    4.15451454212980
H        12.63243587206051    4.82691157601759    5.36548153298805
C        10.66115748123556    7.48437048123740    5.59645905894697
H        11.08521706999738    8.03689933747278    4.75122494111846
H        10.43502555992839    8.18725391849129    6.40312739783018
C         9.73820105969245    5.87690956880947    4.12357457555669
H         8.81765723356436    5.36216504315078    3.83969314478164
H        10.14063379139572    6.41091302523686    3.25584806202116
C         6.76451715857411    2.93698384452893    2.88308125930732
H         7.20708342085725    2.00523647026717    2.51338102695565
H         7.25740530115881    3.78160756525913    2.40224972082734
H         5.69774207788683    2.95313833284417    2.63477746215475

