59
CSD_code = IMEKOB | q = 0 | S = 0 | Stoichiometry = C8H29B18CoINO | MND = 10
I        -9.33578194217647    5.97632935474342    7.94610052178809
Co       -7.92978677169495    7.20332243075946    4.68546728609826
O        -8.37795863438790   10.55951259985173    9.59056240877280
N        -7.65657112216957    8.93183113251042    7.33271880164182
H        -8.47787949347048    8.32014828106058    7.41928837782427
C        -5.98780949167877    6.60725416536139    4.17713821266473
H        -6.09226209391985    5.67176751970984    3.63867793825464
C        -9.50020886296056    7.60044040909109    3.35660079073954
H        -9.15248570629537    8.41112627080783    2.72530236749344
C        -6.37491925787469    7.90552197507375    3.44483735780327
H        -6.73423678465811    7.81918667404896    2.42355629194158
C        -8.90607167204243    6.19677375626091    3.12133864375526
H        -8.17282853293612    6.08946995795277    2.32672874810393
C        -6.96202787353932    8.82489908043077    8.63119245134511
H        -6.08437627745678    9.47086678752091    8.60310340828835
H        -6.64996126836742    7.79363794344790    8.78650791706932
B        -6.28929472980213    6.73349772624670    5.81298078598619
H        -6.45719885655619    5.76845208816609    6.46223380740318
B        -9.86114557662636    7.82293416234394    4.96836687258196
H        -9.92137240029937    8.91269130657791    5.42128014013619
C        -7.88921630352386    9.24893273093640    9.77335831897368
H        -8.72580965152949    8.53919796040335    9.85392672391215
H        -7.34318036274870    9.25770388471473   10.71663784807450
B        -4.61398067065405    6.80522915846184    5.14075318029007
H        -3.91006166373583    5.88068572590525    5.31525331571127
B       -11.14886100114833    7.53838909729035    3.73221378830231
H       -11.82491844693933    8.45407288372805    3.43344952665343
C        -9.06609467654184   10.66231888669203    8.36732122125924
H        -9.40677814746217   11.69586284701401    8.29310539529181
H        -9.94249387838269    9.99488414307496    8.36937988785284
B        -4.69085931226279    7.56819572767289    3.56473064384574
H        -4.14543079099160    7.17926349544352    2.59858170995557
B       -10.49207502212984    6.47582283401299    2.50711389824679
H       -10.60553648464942    6.63107071187687    1.34676053123366
C        -8.15003989310617   10.31308803637482    7.19366830806494
H        -7.29107356361394   10.98478641908121    7.18501487790849
H        -8.68653722945661   10.41962727261451    6.25350026867028
B        -6.96155190402665    9.05905004120421    4.47584342843370
H        -7.70512448667485    9.88160852948221    4.06571376238777
B        -8.80662716534017    5.30466188678795    4.52298618522461
H        -7.99337115567630    4.45537624919111    4.62664782308164
B        -6.82976138779101    8.38791015276075    6.05974364381758
B        -9.51660625530060    6.29126640646454    5.74227486609619
B        -5.10828298875202    7.98514145735176    6.34550858271957
H        -4.64005044344550    7.96180783534067    7.42519451327253
B       -11.19197196968681    6.66172672004297    5.25902359194393
H       -12.01173768290329    6.88137409514873    6.07892463378946
B        -4.15126818461676    8.51036061303835    4.94164146392778
H        -3.04077222651458    8.88441978295953    5.03843933379293
B       -11.55575454662057    5.81081122457116    3.73898640958745
H       -12.63120858533260    5.40775751965690    3.48430576854692
B        -5.30988717194031    9.19528141434662    3.77846012483177
H        -5.12539623483354    9.99797636839662    2.93765457879731
B       -10.06006369623081    4.96050981888541    3.27617419343663
H        -9.93138019472706    3.99054893201011    2.62158161081983
B        -5.53153174790517    9.48469314993540    5.49037409190347
H        -5.39721332335408   10.55893389745523    5.96002389543857
B       -10.52448053701933    5.03706901395226    4.96268551401721
H       -10.86303366351628    4.08511945375393    5.57015941019480

