78
CSD_code = IMEKER | q = 0 | S = 0 | Stoichiometry = C22H35B18CoIP | MND = 10
I         3.77087073807593    8.47948111918163    5.71650233695075
Co        3.83545492494796    5.95560446191775    2.95491900470006
P         3.45715997253382    3.72596004967816    0.20544438752693
C         5.76560841656263    5.74522063051481    2.31439558574289
H         5.88568662363097    4.70877784656241    2.02909063316362
C         4.90200483811061    6.66646986530704    1.40181719677336
H         4.48539838065793    6.23007660628692    0.49965986845405
B         5.69571615870810    6.23422637415027    3.89275269357630
H         5.83565198585798    5.45080604233900    4.76343743915528
B         7.15847635328033    6.53252281697253    2.90020962409053
H         8.11673888101059    5.87936363375737    3.10111469218069
B         6.61880485024542    6.79999892351940    1.25868731261624
H         7.10847102632222    6.31682666001510    0.30377937922069
B         4.17114033241066    7.89091290148991    2.27828357718498
H         3.17020179883011    8.38871881397033    1.90540742219198
B         4.74344545873349    7.68405580515966    3.89768547899468
B         6.51872011932836    7.82100491506477    3.90316018358075
H         7.08248868127626    8.21439180154797    4.86071359251746
B         7.05347564701183    8.18259075062591    2.24356413652561
H         8.00317460118108    8.83896460408621    2.01555509098475
B         5.58632921701990    8.21704591165614    1.23325428631793
H         5.41314242427055    8.78942249653974    0.21887995038407
B         5.54028951061618    8.88757590600580    2.85560645726913
H         5.41002819762972   10.04063805419981    3.06194213582069
C         2.90182958047821    5.02354037040781    4.52645179566118
H         3.41857970546864    5.33914776301418    5.42561140830205
C         1.96797200491904    6.03618683527976    3.81720602982534
H         1.84477995410810    7.02214315341263    4.24626878842975
B         1.87718877976752    5.74860942328976    2.18697957588599
H         1.59029539011662    6.63530012591442    1.46543560834523
B         0.52311164858370    5.30329164058713    3.27207620358122
H        -0.45647900080384    5.95207872102274    3.24636883248422
B         1.21448804776928    4.83686798580332    4.81452738946415
H         0.80839966686826    5.18254674749483    5.85889059233356
B         3.54011892763630    3.94829680876064    3.42768204231694
H         4.58364284211342    3.44150037908393    3.64916233941719
B         2.81299071676689    4.33692983005695    1.89842815442748
B         1.04616878955834    4.15070191478136    2.06548931717367
H         0.37549391391027    3.87352150133216    1.13372368399064
B         0.68746925232106    3.58312862638295    3.70896473697208
H        -0.23407931629050    2.89207283480247    3.94719163657997
B         2.24869525511404    3.44314363707329    4.55026542857327
H         2.52233038953881    2.73894743031039    5.45127018462682
B         2.13153358467505    2.99258458785566    2.85734248588033
H         2.25499219687196    1.87426626485128    2.48493770410506
C         2.58311261131912    2.23406168282766   -0.41106156690244
C         1.34169793067903    2.43044908662196   -1.01207476706999
H         0.95775329679246    3.43278350034436   -1.13247887615369
C         0.60039469170133    1.35621032382479   -1.46521513150430
H        -0.36137948930360    1.52428203746694   -1.92564296873849
C         1.09056659183067    0.06786996414110   -1.32909493712155
H         0.51161464961289   -0.77300679604576   -1.67942697160781
C         2.33006319580733   -0.13520861052225   -0.74872880249663
H         2.72401819767415   -1.13565722399742   -0.64917031986836
C         3.07256376173614    0.94017294126096   -0.29153164668271
H         4.04154696380621    0.75912955201994    0.14697057045699
C         5.21063191193287    3.20851671854811    0.19796824733379
C         5.61804313990201    2.28367759992798    1.16108289669421
H         4.89711140519171    1.89741861394021    1.86629029500012
C         6.94097760868775    1.88924666729638    1.24001729017422
H         7.24376307501330    1.17433096467917    1.98990518765111
C         7.87763575551201    2.42034615972127    0.36718404498973
H         8.91125340361676    2.11754897386965    0.43220913167916
C         7.48531955235627    3.35026639573514   -0.57971618144748
H         8.21298507857339    3.77877585585214   -1.25200723774431
C         6.16108452868931    3.74618018336620   -0.66310589860646
H         5.87495531946815    4.48456743766596   -1.39732951943412
C         3.28711197720269    4.72159944210589   -1.32747685679362
C         2.74753817490356    6.00139168112492   -1.33692831105852
H         2.41446607263096    6.45430066349284   -0.41761176002177
C         2.61625658981506    6.69869198631360   -2.52708172536599
H         2.19861495909644    7.69366964075397   -2.51826103611034
C         3.01640748364094    6.12304125209771   -3.71981917633544
H         2.91791477032575    6.66838376915019   -4.64597326082531
C         3.53487354035725    4.83718199223890   -3.72341114166468
H         3.83648719402448    4.37672468725505   -4.65228388536516
C         3.66396210368862    4.13969920494265   -2.53787840974673
H         4.05615248597202    3.13169007991497   -2.54675367961219

