103
CSD_code = IMELOC | q = 0 | S = 0 | Stoichiometry = C46H51BHfN4 | MND = 6
Hf        5.94329978224604   14.75242403057138    2.77240112911912
N         6.61643561135343   14.15231885582336    0.62582358408348
N         5.52040510123576   14.36655344738475   -0.12199986119403
N         5.77065513513427   16.70433017093454    1.46673625119490
N         4.60188607425855   16.41781628317702    0.85324702480980
C         4.65219330226728   15.51782824494385    4.45296137827584
C         3.38369420713822   15.93425389717966    3.82655761957920
C         3.13423110394507   17.26268516068145    3.45787920747426
C         1.96099251033333   17.62678812223078    2.82607702069871
C         0.98696016553459   16.68136071571533    2.55353001772616
C         1.19690224792549   15.36678153871612    2.94129326728054
C         2.36927830425034   14.99965360572108    3.56924812964343
C         5.90215696574812   12.51934281038828    3.06145178622324
C         4.88890211270955   12.12008235969190    4.04624360091823
C         3.61116984219207   11.69848988838198    3.65555162211785
C         2.65571687838940   11.34622722753403    4.59014051806935
C         2.94608768576221   11.39765806532718    5.94354149068361
C         4.21016547081402   11.79860097803476    6.35031689770189
C         5.16754528225727   12.14998334799832    5.42080089298451
C         8.00316143781927   15.34757297737510    3.44896941238257
C         8.29421217320658   14.49131446850794    4.60668471638143
C         7.86316315078992   14.83184203795952    5.89663720118627
C         8.11348586053707   14.00700426951006    6.97606711184644
C         8.80482735329032   12.81745513534350    6.80659516202459
C         9.25452514475917   12.47031266567686    5.54207961159467
C         9.00865228886811   13.29343087140276    4.46076680720722
C         5.77502637554765   14.05620129021762   -1.39718697289576
C         7.08035388151500   13.61276984225858   -1.48920450044500
C         7.57362145098318   13.68783119847866   -0.18291705282354
C         8.90441489373275   13.32275372513156    0.33488514244026
C         9.18201286878554   12.00832227034604    0.70667659339312
C        10.43658347780749   11.70465815002083    1.22138369118256
C        11.41496494591724   12.67362105610468    1.36970640835465
C        11.12712032798540   13.97302993687927    0.97059713901738
C         9.88820248326648   14.31050032358122    0.45345770618853
C         9.59922055973918   15.71284396208547    0.00824356177282
C         8.16518218930288   10.91395275129729    0.57470764481435
C        12.74648382719613   12.33941420796229    1.96926389320573
C         4.07389007742908   17.53245893301083    0.33876076168647
C         4.92134777320612   18.58670942865257    0.60910631272961
C         5.99019442436389   18.01747923804342    1.30801355178409
C         7.27125478526594   18.66636587994139    1.64581109532512
C         8.16681348008953   18.90657893818834    0.59906956191890
C         9.39046048056846   19.49861002390781    0.87578205667633
C         9.74258143452681   19.86730476862887    2.16418595078159
C         8.82975355760363   19.64751445881040    3.18618150329639
C         7.59940413748857   19.05788239109564    2.94479896194661
C         7.81272703335504   18.56334539014693   -0.81874961896774
C        11.07195882530256   20.49177807981583    2.46049687268581
C         6.61496994553845   18.88765040655279    4.06094374459424
C         2.94389839600577   14.81225224673053   -0.39252800092487
B         4.24462855645382   14.93336380083814    0.55809400122126
H         5.07901725629945   16.34981608211227    5.02418285835849
H         4.46836297900690   14.69338304522628    5.15261743700196
H         3.86857462456442   18.02533428595025    3.67821788175182
H         1.80205067468752   18.66063895999971    2.55184607495559
H         0.06886062800436   16.96777672038603    2.06189360354003
H         0.43461990564463   14.62295514118063    2.75732735835603
H         2.50747388068781   13.97419920122588    3.88611493692304
H         6.89928626744405   12.21349199095490    3.39786999217667
H         5.68875572951217   12.04706741835583    2.09382840799172
H         3.37061787658277   11.64744098935270    2.60042769960097
H         1.67706587426926   11.02539763567787    4.26076299042234
H         2.19924353027373   11.12123616747598    6.67271351548126
H         4.45056478068336   11.83195100898136    7.40365235343428
H         6.15342197002858   12.45293248082502    5.74811654144027
H         8.03565625184889   16.40611728574859    3.72672580344787
H         8.72675323450195   15.15881313975967    2.65135418444161
H         7.34015179028849   15.76716964521997    6.04882947997966
H         7.76967823577077   14.29261968030533    7.96015930709022
H         8.99782206014776   12.17294581222508    7.65097004303906
H         9.80772267241443   11.55220752561399    5.40158870531720
H         9.38425453113930   13.02267919039578    3.48240095313219
H         5.03014177792646   14.15427231101714   -2.16064711761150
H         7.60163477540885   13.27809134152802   -2.36269752332915
H        10.64632285467190   10.68615815336097    1.51663061341592
H        11.88489180180951   14.73724134017614    1.07014303957377
H        10.42569437239993   16.37524930388263    0.25268972920201
H         9.44111130350734   15.73689588365026   -1.07006356121965
H         8.69829448438732   16.09282433391509    0.48865170147450
H         7.31321866449977   11.23303850179339   -0.01935298091417
H         8.61283806864650   10.04027402339292    0.10359648015086
H         7.80842035471529   10.61462602479395    1.55954345625083
H        12.74870345963779   12.59985658810337    3.02827994987162
H        12.95813627461690   11.27664405708121    1.88061364160049
H        13.54221740610314   12.90082874964359    1.48442860317474
H         3.13645744151258   17.52376780660561   -0.17781764776537
H         4.79732707469252   19.61617513762951    0.34240776122235
H        10.08195276740638   19.67719649660914    0.06418569965346
H         9.08354125548613   19.94508618635607    4.19385624903554
H         8.70743119702979   18.51362157711888   -1.43430508582670
H         7.28881425788603   17.61232861951967   -0.88130637231580
H         7.15771824846582   19.33011452589056   -1.23321680358500
H        11.61947567466621   20.69829163453041    1.54443073945616
H        10.94204481959762   21.42389925791751    3.00805900881204
H        11.67098708792246   19.82412203891169    3.07926860797431
H         7.10138892220278   18.99549654617048    5.02765143460447
H         5.83672930077100   19.64864723871068    3.98518998993481
H         6.14342438744880   17.90781667928840    4.00331633504419
H         3.04182591282826   15.36020291671047   -1.32778689780622
H         2.73778276643259   13.77486456015780   -0.64627404706233
H         2.06237070805066   15.19230251280702    0.11805614983187
H         4.12927244297713   14.33958837076671    1.61608710967480

