66
CSD_code = IMENUK | q = 0 | S = 0 | Stoichiometry = C20H41ClNP2Rh | MND = 5
Rh       -2.56579426135667  -13.91548775626650   -6.49999794682597
P        -4.44816634381814  -13.73284870597785   -7.80634550226862
P        -1.77368085117063  -14.27296337028643   -8.65521450451724
Cl       -3.63035166899187  -13.08651216746004   -4.66160409994003
C        -1.60573520701158  -15.42857061781393   -5.36841619006795
H        -1.22124360974579  -16.24355164451096   -5.97778731560614
H        -2.24586087208590  -15.72864541329507   -4.54262982190240
C        -0.84019136139498  -14.25817704095808   -5.23231822403034
H        -0.92983718575667  -13.65142617636844   -4.33169250120428
C         0.37381133684675  -14.10654462480550   -5.92070638537821
N         1.38452105809581  -13.99274618312365   -6.46188265810120
C        -3.51054606022205  -14.13662383837874   -9.37945777473583
H        -3.61140272705758  -13.38104300101186  -10.15317916768368
H        -3.83350991622778  -15.09150988085984   -9.79041453487356
C        -5.66961046103702  -15.16653915059343   -7.53142752192256
C        -6.31980837672051  -14.99580162976069   -6.15516182111073
H        -6.70186265016724  -15.95478968718155   -5.80806113918151
H        -7.15194726130724  -14.30162008146985   -6.16887485947262
H        -5.58263670516398  -14.64414655082299   -5.43402229536671
C        -6.72160664773669  -15.33626380070294   -8.62316631468791
H        -6.26709436014508  -15.36578672058162   -9.61291262165023
H        -7.46077092096665  -14.54008322907624   -8.59836479949632
H        -7.24776460345660  -16.27808840535837   -8.46850599823223
C        -4.81013866552541  -16.43065017327046   -7.45852370063785
H        -3.94160371083727  -16.24998962483768   -6.81695855346109
H        -4.47597434944821  -16.74583094083140   -8.44092181505976
H        -5.38585678023433  -17.24906618857444   -7.02934691909339
C        -5.42339434067568  -12.14619245410280   -8.20334160101489
C        -5.98798343187546  -12.09652385615651   -9.62292581154849
H        -6.62947098342803  -11.22038511336477   -9.71610730449403
H        -6.58153705699885  -12.97389051177032   -9.85946308644465
H        -5.20048204861658  -12.00203819465776  -10.36778196762458
C        -4.44834098584974  -10.98419055844245   -8.00613611647999
H        -4.96591091087805  -10.03548596187069   -8.14439813523054
H        -3.63044012287946  -11.02371820684762   -8.72020867997272
H        -4.04451779584804  -11.00417937874232   -6.99374880770862
C        -6.54363313126297  -11.96483823971202   -7.17998364721736
H        -6.16731257417569  -12.15169464139544   -6.17599158982673
H        -7.38586719910017  -12.61978834727173   -7.38325383412736
H        -6.90854519267489  -10.93861574623338   -7.21793745885653
C        -1.04092165107327  -15.75999297897984   -9.60652824264828
C        -1.05419188133465  -15.56856223339967  -11.12098719805897
H        -0.74092538128380  -16.49438399559811  -11.60305411031699
H        -0.37201087182525  -14.78520277828812  -11.43654328867619
H        -2.05354890848255  -15.32578711690269  -11.47926415860176
C         0.37442648587798  -16.05062542039515   -9.09967816361944
H         0.43367935848142  -15.91740725308995   -8.02123442585074
H         1.11709574115705  -15.41076865074433   -9.55997799451407
H         0.64520126828838  -17.08066123613720   -9.32859215086392
C        -1.89811314435810  -16.98095920557435   -9.25997951963913
H        -1.39099084120597  -17.88973478924619   -9.58118112141491
H        -2.85889146446877  -16.95771281377930   -9.76748715153508
H        -2.06033208282897  -17.04612903066242   -8.18607362990613
C        -0.87377588485987  -12.67528425760674   -9.23092984294421
C        -1.47988310916931  -12.05442967127218  -10.49273710754015
H        -2.45669735510700  -11.61460483316980  -10.30646277571343
H        -1.56938537505657  -12.78180568057189  -11.29647684401128
H        -0.82752524355986  -11.25350123811121  -10.83972165500489
C         0.62219127296571  -12.88411736673567   -9.47518404083045
H         0.81966969979754  -13.42783445853655  -10.39457497637801
H         1.08618875283893  -13.39447555420620   -8.63497418739957
H         1.09451472940488  -11.90576706902995   -9.56745655716785
C        -0.98136354923156  -11.69659942983349   -8.04716636761224
H        -0.90981785332793  -10.66658167805868   -8.39307496947498
H        -0.16515590391707  -11.87424111572526   -7.34869146221895
H        -1.92533787081160  -11.81068232960168   -7.49769503100616

