86
CSD_code = IMENOE | q = 0 | S = 0 | Stoichiometry = C26H55O2P2Rh | MND = 5
Rh        2.65721626380751   -0.00205769649128    5.17577182043194
P         2.90966735346112    2.05187347524204    6.28493574695906
P         3.65901848292736    1.54876553517343    3.49996198508762
C         4.14497391835610   -1.44537317883639    4.85756745498944
H         4.51715971290778   -1.91466057626638    5.76294918912055
H         4.91301007824936   -1.08356004073280    4.18207230508772
C         2.95776414576102   -1.94203867053738    4.28360575615511
H         2.41858348355811   -2.74248808398630    4.77097222964742
C         2.70054356848113   -1.83842843289687    2.86229524720541
O         3.35130997717040   -1.22224815213114    2.03630776632295
O         1.60327902979299   -2.55932815494455    2.50077407610232
C         1.26845943982304   -2.52817555480093    1.12727613420229
H         0.99657504323546   -1.51460807126676    0.81919884493778
H         0.42206208927084   -3.19994050192883    1.00301357110426
H         2.11381298900811   -2.86166544588261    0.51981639386296
C         1.76621682048324   -1.00918864838390    6.79472747992616
H         2.31987014112797   -1.92280381122168    7.04065677120013
H         1.85255574552877   -0.35922701948215    7.67370232850892
C         0.27686295717208   -1.36369300022693    6.62791100917964
C        -0.37702341566933   -1.44637059284640    8.01638052365024
H        -1.43534071019830   -1.68783925530261    7.92802267649686
H        -0.28964385938911   -0.50130733830008    8.55001372635833
H         0.10158715402454   -2.21991590368841    8.61376702795233
C         0.06298563921117   -2.71255623991412    5.93085732801531
H         0.65852264855021   -3.49300530093706    6.40088587629062
H         0.32273348783065   -2.65391712510025    4.87735688780337
H        -0.98493031734649   -3.00333285413182    5.99935454458564
C        -0.43325073554768   -0.28842243622899    5.79748233943604
H         0.12437723216567   -0.13039485527948    4.86665951125173
H        -0.49313971187137    0.64636991524980    6.34986744197918
H        -1.44631190220338   -0.59798441716613    5.54356177264241
C         3.61801611084429    2.92371152111778    4.79435442223833
H         4.61424673035139    3.30757002837024    4.99119090786207
H         2.99186263932786    3.75543375527045    4.48568979351247
C         4.35658626265038    2.06910301799575    7.54365507936832
C         5.14284300604520    0.79248421399538    7.23576755606277
H         5.39452336066857    0.73994981792184    6.18019873582535
H         4.54253097779475   -0.07980821122273    7.48758803185264
H         6.06324661022058    0.76479913032961    7.81811427955427
C         3.85033280151512    1.94275898178813    8.98117213586283
H         3.06871945692237    1.19027764712668    9.04852011222586
H         3.47894890161988    2.88753943485223    9.36811887115660
H         4.67294933428887    1.62696505052927    9.62307471119118
C         5.30613430813277    3.26743637185805    7.45057341752737
H         5.92289791147809    3.29759749125057    8.34853812880765
H         4.78305359349836    4.21514366497902    7.37385596704186
H         5.98345370447840    3.17546193446173    6.60514032233910
C         1.60858443123994    3.31247103657640    6.92753587159101
C         0.86041474041171    2.71594025092602    8.12460761538336
H         1.40164353035693    2.84326549125090    9.05508215377255
H         0.68451701650816    1.65423635705511    7.96796123826041
H        -0.10624954543758    3.20618899020408    8.24050842272375
C         2.18117081374737    4.68084855244999    7.28956555761917
H         2.75980292078241    5.09849641031568    6.46735552307847
H         2.80804817151095    4.63378435129279    8.17497225667318
H         1.36212867432425    5.36837024259512    7.50298398669321
C         0.57195897718772    3.50532545369652    5.81733353145361
H        -0.24801002234246    4.12432157386349    6.18183506383971
H         0.15631871341649    2.54802466399752    5.51269833102245
H         0.98907625807141    4.00470848695426    4.94756003011587
C         5.40187008542215    1.84781861112957    2.74433108520487
C         6.43285723155114    1.57239965104095    3.84425748517581
H         6.34162259409943    0.55231275790325    4.20925366242347
H         6.34253083869159    2.25658644882206    4.68302199177081
H         7.43791292229375    1.69112722819791    3.43872318551219
C         5.68351359020176    0.84043977926360    1.62421766251560
H         5.31479265022902    1.18697697846973    0.66534099702598
H         5.21916117930530   -0.11754808893420    1.83866072738929
H         6.75797545895186    0.68850442145445    1.52451973860741
C         5.61556529661896    3.26980743538732    2.22651799336669
H         6.65835916055732    3.38946878398354    1.93090384747484
H         5.39923068895161    4.01758618260429    2.98755013723057
H         5.00361728977815    3.47061550202180    1.35215423081156
C         2.38132425239089    2.16080130113968    2.20767563913097
C         2.69266127649419    1.60806023831557    0.81689555093289
H         1.79455278455292    1.65951397149827    0.19942524340459
H         3.00567014832218    0.57028111018626    0.88226004144889
H         3.46514704936723    2.18721635604838    0.31896057797130
C         1.07481980799955    1.51310414914508    2.67685349931387
H         0.86937790169585    1.77936273309006    3.71332976166511
H         1.15176654645413    0.42860334240711    2.59878241590813
H         0.23463400755135    1.84209380405655    2.06466665351373
C         2.17157456977203    3.67522018668062    2.10449327477630
H         3.10669322113734    4.22543546498422    2.06561829858765
H         1.57437072299993    4.05851375322136    2.92873291371960
H         1.62014158531901    3.88971461935028    1.18897556396128

