80
CSD_code = IMESID | q = 1 | S = 0 | Stoichiometry = C33H41IrNOP2Si(1+) | MND = 6
H        12.06915283086455    8.49660701370313    3.74280418187431
H         9.86426763874683   10.85991499642925    5.51042322029734
H         8.39448723312170    9.39756197754168    5.86234857318015
Ir        9.70923174613471    9.41151109840587    5.07800653773724
P        11.05642261528193    8.81693636581573    6.89078315160136
P         8.68648932328869   10.08774143068935    3.07969250806485
Si       12.62965319762535   10.71245619798494    3.53342162821832
O        11.69210144242605    9.36760781287599    3.86787975259171
N         9.50819392065612    7.52136833622233    4.53977342256824
C         9.25518140415029    6.42285876405564    4.31913439669012
C         8.93171946011990    5.05891857929517    4.05539345767660
H         7.89007637080983    4.99220380018524    3.74019759523589
H         9.07625080075904    4.47109799273210    4.96264256301085
H         9.57008674659470    4.66489367423970    3.26472384893570
C        12.82632315103749    9.32614619934578    6.70150710279980
H        13.34371341009971    9.02949272450271    7.61842141738493
H        13.27332181014951    8.76854700565541    5.87613574657274
C        12.96687453307173   10.83621424629673    6.45067048707660
H        11.98298113453049   11.31031805174042    6.49332324382381
H        13.56661157749394   11.27428971945151    7.25042423524157
C        13.62981213028821   11.16407074225284    5.10728080387767
H        14.60710592296257   10.67721245622748    5.07604527200796
H        13.83469823499914   12.23452071960545    5.08751454679211
C        13.78939608704859   10.21646581594934    2.11078506691358
H        14.46339375596251    9.41057839264108    2.38892165824045
H        14.40523701228476   11.06219875835521    1.82844279083018
H        13.24853785236190    9.90210849682382    1.22301652893181
C        11.34089957697762   12.03977980975196    3.05788379110562
H        10.62078798164457   12.14565090830906    3.87113404805917
H        11.84313347005738   13.00354874242815    2.96738607078648
C        10.55830631711579   11.79976596501360    1.76461956047978
H         9.81282731329823   12.59298426585538    1.66177427221157
H        11.23664722442304   11.87453931090838    0.91067817159615
C         9.84660250889731   10.45025766262608    1.68205924633793
H        10.58077915843158    9.64273179597576    1.64176506853487
H         9.25495547539696   10.41677080654327    0.76097746806627
C        11.12313906323593    7.01647844405940    7.15397528919834
C         9.97584971425423    6.44042089903233    7.69765814788781
H         9.15639562293452    7.08472624997516    7.98791990982721
C         9.89084562245044    5.07211856608989    7.86394590842190
H         9.00365753419472    4.63506018897827    8.29732127118488
C        10.94728509744466    4.26070605289884    7.47510318865329
H        10.88622531853066    3.19091673650353    7.60613733196032
C        12.08371643655366    4.82517456223302    6.92195514560374
H        12.90799555582610    4.19584183465485    6.62177950831167
C        12.17245373556393    6.19778143398306    6.75565528179205
H        13.07091414665239    6.61958769422081    6.32842127731174
C        10.69873114280509    9.40999224585626    8.57245272462881
C         9.76783221465899   10.41863021060019    8.78479019491664
H         9.23375249870384   10.82642706559649    7.93864651653484
C         9.52883864598701   10.87825981369041   10.06870163164021
H         8.80604376331512   11.66285351618130   10.23212164289188
C        10.21181956710867   10.33055834065664   11.14160456440525
H        10.02404876037502   10.68838860126338   12.14231330251970
C        11.13378624414117    9.31606928085410   10.93348396384362
H        11.66049966873588    8.88316861742659   11.77053260718630
C        11.37872360597423    8.85522615600168    9.65414229326032
H        12.08983326601475    8.05520505756277    9.49478308725358
C         7.66240008153120    8.74423237642824    2.40009394909991
C         8.11488853095554    7.83792266146294    1.44863058306526
H         9.09597482389305    7.94656573689921    1.00849435584491
C         7.30481041332160    6.78803564716131    1.04909133302807
H         7.65766268103799    6.09423977875371    0.29994280034299
C         6.04588348278823    6.62834035544982    1.60303343392058
H         5.41601379065218    5.81163966260522    1.28431212684956
C         5.59671589553045    7.51849498500746    2.56710436049273
H         4.61741733745794    7.39375636295837    3.00349191741671
C         6.40338828400776    8.56531734609694    2.96934194382550
H         6.06757520171951    9.26002907444412    3.72744464070760
C         7.53997576013367   11.49654408494855    2.98268824003378
C         6.84046434739287   11.73420506147852    1.80173729794339
H         6.95741800838352   11.06749470742159    0.95805704024767
C         5.98215348971003   12.81353196732407    1.71273732655792
H         5.44050615719227   12.99490372309008    0.79665676558858
C         5.81410293782486   13.65951059106118    2.79839335844738
H         5.14274990335496   14.50124411375081    2.72458226998883
C         6.49994298241591   13.41951491583130    3.97725239279243
H         6.36196436175711   14.07271817897588    4.82528873126292
C         7.36080094476148   12.33942744089510    4.07201071631941
H         7.89264298957561   12.13126902322702    4.98927819165718

