74
CSD_code = IMESOK | q = 0 | S = 0 | Stoichiometry = C33H31Cl2N5O2Ru | MND = 6
Ru        1.58064209904146   12.49597139897145   16.50368839442285
Cl        3.43349238657780   13.84228112137589   16.96332796021213
Cl       -0.07579196894118   10.82088630746203   16.16924029878663
N         0.86232379825716   13.67191519523933   15.18292565467923
N         0.20121124358798   14.71578639541882   15.56818792889823
N         0.38865002858105   13.64784367939316   17.55707238809506
N         2.84213313093499   11.31806794908572   15.38239963971552
N         2.30975663768097   11.13732772437818   17.95543131642934
C         0.16751095571633   13.47040550333078   18.91827352939822
C        -0.05000366560292   14.69868147827015   16.88907667000906
C         1.41048673097684   14.69907998001592   13.05847191861752
H         1.55937377151018   15.63705745798074   13.57092236624034
C         1.03587271855288   13.57987735250690   13.80235999616105
C         1.00792913014576   12.25971880416113   11.79663187543255
H         0.83033851026527   11.31651551202205   11.30162029348506
C         0.82420369862377   12.35696252953115   13.16269623075447
H         0.48273329541545   11.50959464995919   13.74036757030940
C         0.65729740419332   14.01440229348902   21.20623251906485
H         1.17234929548160   14.63248556797920   21.92536825451608
C         0.80002209935744   14.28239421366037   19.86191205027793
H         1.42205694852083   15.09768657784303   19.52222299648042
C         3.36399943643545   11.50409308795424   14.18826532296611
H         3.37218047869695   12.51927958693400   13.81676007452469
C         2.63758349213570    9.98852882508455   17.32741878925410
C         3.88434500183364    9.17646480776491   13.89572682567704
C         3.45267835140443    8.98219174745842   15.23110369115438
C         2.77572634421997    8.76267732755313   18.00425637654358
C         2.53289366561726    8.74048424708237   19.39979375737890
C         3.89343756910932   10.47374682545730   13.40135036283461
C         2.95272380560533   10.09151898144195   15.93588323629829
C         3.18623403206400    7.63409748052697   17.23765953600677
H         3.27660075806688    6.67790380743132   17.72845763408670
C         2.22817406441495   11.11972272820293   19.26579814282912
H         2.07154227017728   12.07008999291190   19.75533735635380
C         2.32342508989146    9.95440476336794   20.03869518220225
C         2.16686088533649   10.07458299170488   21.52155907990831
H         1.17309094656680    9.74819510407536   21.82780571779527
H         2.27763307789451   11.11197793239601   21.82527026017551
H         2.90689351675883    9.47404819210802   22.04584131977053
C         3.51615895661079    7.73963622308755   15.92557738395931
H         3.86274604029936    6.86643809818881   15.39596210997400
C         4.41948769432318   10.81819181710734   12.04185760477856
H         5.44068917425550   10.46205505576475   11.91888039871315
H         4.40667680919246   11.89494837735732   11.89761791187971
H         3.80236306043057   10.36614608801298   11.26630895049379
C        -0.12073653084616   12.94092636467540   21.64175019338556
C         4.35122731071023    8.01070639245081   13.08282950227556
H         4.47905808054287    8.28108677566067   12.04047478662079
H         3.63003976887594    7.19783221495592   13.14230425129860
H         5.30529498016118    7.64506090806791   13.46297481915341
C         1.41299285263639   13.36405775183563   11.06331935097552
H         1.56599723283611   13.27933023816109    9.99761491717185
O        -1.40833226459825   15.68127003479231   18.55770342583374
O        -0.53599141831742   11.31263668683100   23.31573980479277
H        -0.68755207519560   11.19240989253201   24.26081937972062
C         2.54099836986366    7.45001984063610   20.15581624531674
H         1.99401943255829    7.54667794543098   21.08825351752797
H         3.56469964927081    7.15255195865098   20.38602178203692
H         2.08026546908517    6.65973338208550   19.56849908408807
C         1.60981241910717   14.58172118889992   11.69664938660945
H         1.91615063831179   15.44489553365949   11.12453234685744
C        -0.60610197487625   12.39089535071457   19.34445586202847
H        -1.08848188592570   11.76504720883453   18.60747509777208
C        -0.74766056794168   12.13598417464896   20.69172400882872
H        -1.35226055016793   11.30544429047068   21.02155656087228
C        -0.90003081564979   15.77204626276824   17.46222297861285
C        -0.19636830639191   13.53558124849565   24.04718927505722
H        -0.32986265152922   13.26028706341963   25.08080135117591
H        -0.02329702432965   14.57337541304597   23.84340298243567
C        -1.06914636709821   16.96139556832415   16.55976445594308
H        -1.76397087333512   17.66836164137903   17.00452184588409
H        -1.42447454548685   16.62994649380888   15.58792156652398
H        -0.10137648145549   17.43595249937225   16.41211781227800
C        -0.27774464136106   12.63429989397583   23.06982653094757

