44
CSD_code = IMEVIG | q = 0 | S = 0 | Stoichiometry = C19H18Cl3NOPRe | MND = 6
Re        0.51329092676995    1.81352821073317    8.76530187873452
O         0.41340143141135    3.16307171757133    9.72786348372467
Cl        0.20791460925363    0.35194436887865    7.10302773490914
Cl        1.16008922258984    0.25424231980708   10.29804873133537
Cl        2.69798129761625    2.04459987226436    8.06313938024130
P        -1.86792285794625    1.28365725975244    8.99127128657940
C        -2.69419434574165    2.04787975525326    7.51931017707430
H        -2.21690504199304    1.64629338617013    6.62167820200791
H        -3.75014598426300    1.76529612926901    7.53565502085482
C        -2.54276904124821    3.53472534868825    7.64011887362250
C        -3.61403545696250    4.30708180016823    8.07098416134863
H        -4.56460782080269    3.82783475877971    8.25531192117345
C        -3.48152346737775    5.66736324800286    8.27985006231083
H        -4.32768666843435    6.24460905322704    8.61826510102516
C        -2.25776811232415    6.27828165157952    8.06826208912388
H        -2.13983853006013    7.33656089928610    8.24132264827069
C        -1.18078592651165    5.52827082536982    7.63596467787194
H        -0.21957562848663    5.99618382234419    7.48298013820318
C        -1.31003438608656    4.16202095225424    7.41614271804286
N        -0.17655597892073    3.40666037337009    7.03543982683554
H         0.63771804246438    3.99171785066211    6.86250102205393
H        -0.33346624745298    2.78089151596219    6.24873071045627
C        -2.30689867041140   -0.46599479281362    9.01328207250429
C        -2.79019218805537   -1.14938209599836    7.90363453151222
H        -2.96622529518817   -0.62878150775692    6.97394863193248
C        -3.03205622247924   -2.50931246097856    7.99116562883207
H        -3.40659345735914   -3.04264137700055    7.12986740060224
C        -2.78373293392026   -3.18801109502183    9.17280814297603
H        -2.96639865402557   -4.25065787979938    9.23082545798422
C        -2.29027454658783   -2.50906554898370   10.27665880197015
H        -2.08433906374971   -3.04139346054143   11.19281271437156
C        -2.04894435696772   -1.15121370478163   10.20000037086395
H        -1.64450370057579   -0.60945183600701   11.04431881470676
C        -2.83649440336370    2.00463535159454   10.34600938833898
C        -2.31203652666084    3.06713545019117   11.07081175389448
H        -1.30423073985022    3.40096449308702   10.85741848290627
C        -3.07486502897489    3.67168730412205   12.05413490735891
H        -2.66817004782635    4.49681414575064   12.61860638289779
C        -4.35633711337697    3.21491358081433   12.31569328888934
H        -4.95099247700601    3.68550303927845   13.08449114740959
C        -4.87725338446256    2.14901775605997   11.59828312368204
H        -5.87437377907083    1.79096591592954   11.80862104755384
C        -4.12202187326209    1.54183554074394   10.61247713801758
H        -4.52214557232116    0.70661806271666   10.05306092499628

