48
CSD_code = IMEVAY | q = 0 | S = 0 | Stoichiometry = C20H21Cl2NO2PRe | MND = 6
Re        2.39131731866950    0.91393025658552    1.65517292184228
O         1.31059174144410   -0.21384589137906    1.10287592234513
Cl        1.55069486534377    0.90236558062274    3.85302944146562
Cl        4.05968822646648   -0.61027197946618    2.13929811751647
P         3.18262112844468    1.45958608887317   -0.62446895093162
C         1.91810072303511    2.61521314838485   -1.36577627077244
H         2.23702833871594    2.88490753889348   -2.37609175089605
H         1.01014528787709    2.00654175631383   -1.44891670936205
C         1.69642365283567    3.83688888257222   -0.52439810439356
C         2.13674455503897    5.08065021577399   -0.96135731668132
H         2.57583637812821    5.17026588924580   -1.94420914724228
C         2.01940234295929    6.21105055383035   -0.17349975018324
H         2.37546686738058    7.16147085137296   -0.53947938141970
C         1.45321002032043    6.11393021561513    1.08580655973335
H         1.37317332873231    6.98484663707410    1.71791195674177
C         0.97461788137932    4.89578882708349    1.52716277524913
H         0.52181116512599    4.81061380076050    2.50474757462083
C         1.07438141816289    3.75817223580106    0.73127141407569
N         0.60451338315238    2.52996944071269    1.22755290357953
H         0.02728252676265    1.99391473803616    0.58623384860073
H         0.15440616244644    2.60663748311532    2.13733712972184
C         3.28412746978435    0.15845401499580   -1.88579498630625
C         2.64720792453954   -1.05315522814983   -1.63864365652146
H         2.12662272474556   -1.19341451371586   -0.69939617007659
C         2.70198048787772   -2.06184760774088   -2.58387929846770
H         2.21115999880986   -3.00385324629305   -2.39278196313341
C         3.39344260421766   -1.86570854342843   -3.76849081014072
H         3.43935791499326   -2.65493096321142   -4.50405898580303
C         4.03669042501928   -0.66171929755125   -4.00985030807148
H         4.58304703736533   -0.51501258117968   -4.92998850913703
C         3.98667479359839    0.35212467421613   -3.07113970068891
H         4.50059424610096    1.28642485534325   -3.25092575385863
C         4.79733062924734    2.27914731921994   -0.69784745090691
C         5.79061453592477    1.72417730136364    0.10859926529494
H         5.55646447348922    0.86523816439490    0.72664720095490
C         7.05831670507412    2.27581872222003    0.12098874465321
H         7.82373149064021    1.84486690402211    0.74865551915975
C         7.34417418876879    3.37964738297745   -0.66717050653761
H         8.33277081072804    3.81400998138308   -0.65361688540544
C         6.36130711442727    3.92639061174788   -1.47525015039162
H         6.58423902716565    4.78328292905046   -2.09433810141932
C         5.09015425836834    3.37946086375121   -1.49495207010763
H         4.33604739021183    3.81175939856240   -2.13371547254175
O         3.36622080028876    2.30634156635345    2.13168128493232
C         3.92319945393139    3.23772326884164    2.95417333630531
H         3.42531618210395    3.19545586104913    3.93504855800927
H         3.81314151925142    4.24709223183133    2.53173778943228
H         4.99250848090855    3.02639966012464    3.08980589716564

