44
CSD_code = IMEWED | q = 0 | S = 0 | Stoichiometry = C19H22FNZr | MND = 13
Zr       11.53481385215687    0.72901523338984    4.97556847246982
F        11.98838212280731    0.66856783071129    6.84896048585494
N         9.94999667967478   -0.79032554541963    6.27075014248122
C        12.66092501344983    3.04819368392294    4.73746879995398
H        13.71201767679339    3.19562645610610    4.52091222276076
C         9.54811974556778    0.64891414557776    2.39522409074759
H        10.20089788721732    1.41882078481807    1.99028246146754
C        10.67475551054520    3.07124914710310    5.84764371931620
H         9.94158147595232    3.22809413607055    6.62826929815506
C        12.60015708164655   -0.62147230076504    3.03702307616423
H        12.18154409730154   -0.74970035900173    2.04781975787934
C         8.49808951260743    0.23649031477894    1.58800254898201
H         8.35685961500526    0.68484589750414    0.61359695534743
C        13.94213239132489    0.08305397397531    4.74175919839145
H        14.72083612727814    0.59725016162098    5.29348641405491
C         9.16636723220631   -1.62328060394064    5.35510989131424
H         8.21702161897951   -1.93316283218563    5.82650081398090
H         9.73659299019941   -2.53686223578622    5.14320596141054
C        10.39464014090353    2.92041985453899    4.47295089034187
H         9.41206464992960    2.98495477784887    4.02029947941837
C        12.06649612738691    3.17070906926303    6.00188480563667
H        12.58653279402961    3.34788847836851    6.93232092475687
C         9.80276664686246    0.11628598236251    3.67314771750935
C         8.90867050576516   -0.90369364200152    4.05112397774558
C         7.62699824126020   -0.74531776751053    2.02565661223013
H         6.79909978194312   -1.06363264605142    1.40866664717731
C        10.47596144971813   -1.62993796013740    7.34748858350139
H        11.14764930137232   -2.38004622804191    6.92996366588903
H         9.66397622980387   -2.14057348840076    7.88553856296788
H        11.03299869306101   -1.01819779662815    8.05451821384905
C         7.84214605698918   -1.32124438778991    3.26306662113849
H         7.18364124373135   -2.10481051799312    3.61696363727590
C        12.44289433125891   -1.51875646639493    4.11638326801096
H        11.89603047705775   -2.45197928017099    4.07577069194868
C        13.28453663099979   -1.09234504920916    5.16152822233580
H        13.47034518998565   -1.61404637214024    6.09180000346866
C        11.63104964040066    2.90577496872907    3.78024971108317
H        11.76130195477771    2.97035822537017    2.70607831380784
C         9.07341751303025    0.23249715956559    6.85106381671094
H         9.65756255897896    0.87571824296395    7.51240825404363
H         8.26369548124858   -0.23230153825947    7.43625805239326
H         8.62735159724253    0.83145862319847    6.04991965374932
C        13.52376805918025    0.36668750618624    3.42258596282942
H        13.94791407236894    1.12101236385390    2.77047939944815

