47
CSD_code = IMEWIH | q = 0 | S = 0 | Stoichiometry = C20H25NZr | MND = 13
Zr        5.11319471536188    1.18711269234995    8.11633801311116
N         6.48666662822663   -1.74603120385231    7.82534797405683
C         7.53964923082185   -1.23108918717966    8.71259030924221
H         8.04035176964635   -0.40355053287546    8.18803230679354
H         8.28953511105625   -2.01602566765002    8.92275140694019
C         5.83447455053727    0.12696762569901    9.93262399709325
C         5.23255131255731    0.42914357609530   11.16628408950010
H         4.34151714448196    1.05947790850230   11.19819537652447
C         2.67974751328262    1.80846171161628    7.53414461221674
H         2.33447230470669    2.79634727150817    7.25392579724372
C         5.71245951056663   -2.78411847583093    8.49699070977331
H         5.20600089943487   -2.36624565521901    9.36540692960678
H         6.34793136139376   -3.62117752395048    8.82729953539366
H         4.96481534929982   -3.17409461812289    7.80806738500092
C         5.67820606249295    3.19064601184393    9.74028418179293
H         5.52146368029193    3.21572572432013   10.81015920239002
C         7.10146671833923   -2.32784700054412    6.64084594367845
H         6.32449077725522   -2.65119152237691    5.94932664490560
H         7.72750554207403   -3.19982568272367    6.89010405563946
H         7.72677620279016   -1.58948303616609    6.14468332225317
C         3.04290041147340    0.78713657226814    6.63754314650177
H         3.03102816237992    0.86096332541581    5.55739555210055
C         6.82910979536176   -0.86381445103637   12.40791794759313
H         7.21767758789826   -1.23034528801373   13.34715449633635
C         2.67191222127920    1.26648996792495    8.83496220540553
H         2.31020066704270    1.76768107781523    9.72616225902092
C         3.01850394069663   -0.09997573522212    8.73944433060762
H         2.97138581591228   -0.82313317090555    9.54450161927358
C         3.25291895457313   -0.39356523775497    7.38077403938320
H         3.43500414627881   -1.37569425782497    6.96653905208426
C         6.93801715670319   -0.74213088094597   10.00724392264712
C         7.42883388709425   -1.22433742974881   11.21461356888521
H         8.28419288980655   -1.88816720800292   11.22423772530065
C         6.74568301586417    3.12136394549969    7.72962414403795
H         7.54086692636407    3.09163228875572    6.99538975588757
C         5.44302580998657    3.62826823873717    7.51645688252987
H         5.07181700169257    4.04853171888400    6.58791530040172
C         6.88419814514146    2.83700987775717    9.10079326820103
H         7.79378420122021    2.52186621021839    9.59746053313696
C         4.79276988269291    3.68155720665735    8.76656606042940
H         3.83784339963667    4.15217821387964    8.96591893469623
C         6.05204451707233    0.72728053958804    6.13730963347843
H         5.76870868338889    1.53819340915189    5.44374924041067
H         5.69923093014618   -0.20391405132187    5.67800407669296
H         7.15121315738002    0.69040116402108    6.12722695389870
C         5.71145047242124   -0.04966989631771   12.37845856122005
H         5.21380183588499    0.21519143509280   13.30193499668176

