51
CSD_code = IMEXIJ | q = 0 | S = 0 | Stoichiometry = C22H24N2NiO2 | MND = 4
Ni       15.66830334280911    2.87564638451035    3.66141612071730
O        16.98836115037757    3.15044067922297    4.89692292276334
N        14.53230130741062    2.18704274642420    5.10487082228426
C        17.29442001932405    2.34350980259525    5.85120395934851
C        18.63706110135456    2.32138839270065    6.30489749503270
H        19.32574760874749    3.01254092261888    5.84113464506140
C        19.05600534045364    1.43726622137472    7.26164820334317
H        20.09130016284813    1.42799810078165    7.57103973520578
C        18.15718428426063    0.52636249495473    7.81698758677343
H        18.49888293384138   -0.20408931981870    8.53426085590364
C        16.83519108320797    0.56644100482017    7.44845334320711
H        16.16334675355926   -0.16413012269085    7.87421679361222
C        16.35637168644118    1.48521461926483    6.50245025175045
C        14.94967963658328    1.63081709047462    6.20173459063394
C        13.96659531821114    1.20329269800824    7.25789412763941
H        13.39905343456219    2.06941413139548    7.59903397958031
H        14.46307079171128    0.78021952022148    8.12238332415783
H        13.26349748870976    0.47910862966822    6.84987254391551
C        13.09316840790377    2.36606025705459    4.92130139465986
H        12.94610368542158    3.11742050423531    4.13865214126225
H        12.61619015667552    2.73385023674854    5.83625451880373
C        12.44300328345503    1.09544399009224    4.45453862246550
H        12.98674887835352    0.58699103778687    3.67041860968273
C        11.29664470923736    0.62908816758718    4.91256921265724
H        10.74289917927176    1.13401543040695    5.68877180143541
H        10.85240567378961   -0.27102790313728    4.52309381336368
O        14.34822530330987    2.60087371508703    2.42591178519402
N        16.80429517300134    3.56430441286581    2.21798841504724
C        14.04216675414216    3.40780841113371    1.47163328887956
C        12.69953179428296    3.42993063199862    1.01792083217602
H        12.01084151034473    2.73876652428083    1.48166017802004
C        12.28059765272207    4.31406566956959    0.06117624964016
H        11.24531044100708    4.32331540257704   -0.24824704953953
C        13.17942474696356    5.22497979626431   -0.49414236372386
H        12.83773060906860    5.95544464574860   -1.21140496702261
C        14.50141870704460    5.18489662648360   -0.12559627898435
H        15.17329286356975    5.91543191025657   -0.55137499133389
C        14.98021586776512    4.26612629890711    0.82041388157507
C        16.38690132570394    4.12053201555603    1.12113009424434
C        17.36993633732924    4.54800337341304    0.06491024201825
H        17.93732413058193    3.68181718809037   -0.27634219372860
H        16.87341350397016    4.97122727820525   -0.79948982046455
H        18.07317849188843    5.27204992042429    0.47292578507626
C        18.24342866473156    3.38524040725481    2.40152123875018
H        18.39048246240386    2.63393126414964    3.18421795735319
H        18.72036869506831    3.01736267769621    1.48658350578402
C        18.89367327381860    4.65584171109041    2.86820930591469
H        18.34994192893001    5.16440589781825    3.65226975992519
C        20.04005478518472    5.12209986961524    2.41013783043289
H        20.59372253540733    4.61713242223601    1.63390756468824
H        20.48428502323712    6.02228621197429    2.79945833481675

