105
CSD_code = IMICOY | q = 0 | S = 0 | Stoichiometry = C44H48F8N2O2Pd | MND = 4
C        14.07004613521387   11.33499931283949    7.26005872491341
C        14.12137531515379   10.70257657041260    6.01343134775356
C        15.15335803160192   10.95790681338592    5.11872355054315
C        16.16806487274087   11.84044484132813    5.46136054959816
H        16.96574265853630   12.03420140075681    4.76299271712162
C        16.13404534487700   12.47196749072710    6.69445594081985
H        16.91820919399530   13.16298929592887    6.95945015343839
C        15.10139033381393   12.22876395958177    7.57614121638594
H        15.05901390851752   12.72864404004937    8.54615300879532
C        15.13296773242091   10.27628758774013    3.77717848834909
C        12.57420087316868    9.96936860695326    8.44594414320462
H        12.98409006908618    9.11595594397509    7.90346587379284
C        11.59107987366830    9.66102338390763    9.41105371742952
C        11.19477674110379   10.59276674800679   10.42831370876067
C        10.11385464549797   10.19625037964816   11.28743117003055
C         9.59761412490763    8.93310624643815   11.16958864448680
H         8.78893723508663    8.64622564229629   11.81962951512755
C        10.05297254838098    7.97472854257866   10.24048279770977
C        11.03407962130103    8.36256068088701    9.37268851270619
H        11.39645485674824    7.69922850830764    8.60396077796107
C         9.54777716733170   11.21066854040857   12.27366102304333
C         9.08070566956478   12.44984610423893   11.49379154321810
H         8.74913197735533   13.22264249805663   12.18356260116146
H         8.24734283128722   12.18594694557551   10.84493733372225
H         9.87773685673055   12.85657475902185   10.87192393539972
C        10.62951336182408   11.58546441633688   13.29552157329311
H        10.24140060859566   12.32329625148600   13.99418599015200
H        11.50269049526295   11.99381094756318   12.79762747585129
H        10.93169927623640   10.70349561145034   13.85710651668992
C         8.33905399704409   10.68053079864226   13.05209252382760
H         7.97078986977574   11.46786743592598   13.70629656544670
H         8.60938408928790    9.82960864751276   13.67352186255888
H         7.53008345467933   10.39601104174566   12.38293103403554
C         9.41868460397665    6.59354236961192   10.23515329459826
C         7.92105093309968    6.72720188188329    9.92599307577397
H         7.41001881874849    7.31830087601590   10.68084646590092
H         7.45657030241995    5.74404634612974    9.89270364711850
H         7.77899183881097    7.20941637657551    8.96123111986873
C        10.04368767953169    5.67028332806924    9.18594291283792
H         9.57168446266986    4.69132061161688    9.23661834414116
H        11.10837056394045    5.54024669766522    9.36553607281746
H         9.89601491104267    6.06183305608796    8.18242280617413
C         9.61057146159968    5.94816454218759   11.61476029778238
H         9.13303325870818    6.53081214410545   12.39746232206144
H        10.67037579682115    5.86842718550350   11.84765472539205
H         9.17885161042689    4.94965660596597   11.62389448033562
C        12.18851403965922   14.57343141384981   11.36859416933804
C        11.31167206598180   15.09219255266965   12.32709535456948
C        11.60312624755892   15.01914367360324   13.68372230667067
C        12.79014895551943   14.43993978099542   14.10960915705418
H        13.01046455980208   14.38660904188526   15.16325211739199
C        13.67149505546414   13.92498808661517   13.17229550501167
H        14.59114328863641   13.46867619943729   13.50194153947306
C        13.37445118201415   13.98497621027741   11.82656137334382
H        14.05677884246535   13.57319287755613   11.07991211453026
C        11.45736552281473   15.63200504012715    9.40540740297394
H        11.22564184084866   16.50947824088658   10.01114185585381
C        11.23575213851194   15.77532100986639    8.01859202453818
C        11.78731838026759   14.86633203499619    7.05443773679672
C        11.40900920686004   15.06530309996977    5.68287226079063
C        10.64580287924618   16.15368598516572    5.35294064920987
H        10.37099917047663   16.29452653775814    4.32169710511180
C        10.18464398219017   17.10898211957522    6.28239874899895
C        10.48073791233635   16.89393108628535    7.59845405997874
H        10.12049810403166   17.55603022659109    8.36923140841254
C        11.83498281017061   14.03396179564874    4.64502786548202
C        11.30316657359585   12.65628298082737    5.07055584233330
H        11.66548210491044   11.88917604272344    4.38994685809161
H        10.21488056897699   12.65548461908807    5.04331643559406
H        11.61629985205739   12.40036427342716    6.08236865414754
C        13.36593763370030   14.01870965774411    4.54130450420662
H        13.68202808047399   13.27410968252300    3.81409665183031
H        13.81322868648673   13.78762308570866    5.50232815605628
H        13.72615225427793   14.99312773293235    4.21681304304405
C        11.27884035006158   14.32456089311727    3.24707160125188
H        11.59403175868954   13.53130747862377    2.57259179591152
H        11.65951702717290   15.26567238062785    2.85626566773981
H        10.19138394602109   14.34869219565166    3.25003915722455
C         9.37596334326341   18.29448281530160    5.78172025329116
C        10.22536559589207   19.09148796205765    4.78172458678979
H        10.50112476283658   18.48645464064596    3.92258921543181
H        11.13828519313514   19.44090798780342    5.25950701548356
H         9.66992483846263   19.95587492499499    4.42423235866535
C         8.96265951325677   19.23716401909890    6.91500583843119
H         8.32628334584838   18.72797037953318    7.63469478120691
H         8.40181979597958   20.07422950553107    6.50451686442682
H         9.83444246152894   19.63598693965630    7.42840889459750
C         8.10195591019075   17.78486180219441    5.09367502541956
H         7.51169961976402   17.19184298124250    5.78893378910923
H         8.33483339865783   17.16695947237622    4.23098803982638
H         7.49791666210554   18.62435160309287    4.75623266707680
C        10.60243027638424   15.56045286651005   14.66879992014423
N        13.04632242913747   11.15441337712535    8.18122572225981
N        11.93833087489682   14.57860549044266   10.00239366238046
O        11.80527091263507   11.70499045902911   10.62957976197150
O        12.63630950223552   13.95341560036837    7.36417901971917
F        13.14091983146205    9.85913565945892    5.64736155517591
F        15.13194230067327    8.93782580824708    3.88089053687917
F        16.19718504073576   10.59359789959598    3.02643434091598
F        14.05147873833121   10.60562193473976    3.05292193785213
F        10.14558502005632   15.64022132682008   11.94417705812052
F        11.01969140191625   15.44426863606159   15.93734837667489
F        10.34497851485084   16.86383799089671   14.47582526015160
F         9.42290142134543   14.92266170381444   14.60206814559950
Pd       12.43089426073787   12.85814616144771    9.07039814721868

