57
CSD_code = IMICEO | q = 0 | S = 0 | Stoichiometry = C28H25N2PPt | MND = 4
Pt        4.41980730053653    2.54978521505736   11.35008536721579
P         4.00276046314163    3.44442893227208    9.25687635120462
C         4.93776642273246   -0.24629626484623    7.94140293732341
H         4.81771580900880   -1.24551966287377    8.33390170850307
N         7.07626300432741    1.48466079573343   11.86415725616028
C         4.63000265237736    2.13273815281900    8.15650745845158
C         8.56905302339953    1.69685677880781   10.27194290694844
H         9.46526915982788    1.62711307721633    9.69092642519466
C         4.92594715229954    4.94356640084124    8.79522826529483
C         2.38116180005030    3.81835495369304    8.51351765938776
C         0.48413406421443    3.29912175037873    7.13665988956102
H        -0.01125438468023    2.63836952272686    6.43995850218300
C         4.47782765133791    0.84113816093614    8.65879072121039
H         3.99775941274881    0.70986119908192    9.63191564178502
N         6.50519415858717    2.22333606252575   10.91489531960034
C         8.32864016768607    1.14562405356595   11.51263709618162
H         8.96502068318152    0.54670978943007   12.13027702350291
C         5.26195175788918    2.32482625598849    6.93546404419660
H         5.40481039738089    3.32338048435270    6.54718658215181
C         1.73689461780251    2.96809011842390    7.62350601682073
H         2.21514470057256    2.05053107748041    7.31010456563001
C         5.81982013653324    5.44009086874263    9.73792723655384
H         5.90713629302966    4.93186902332408   10.69341412751244
C         4.31221115028027    1.37594220349153   14.24413460536259
H         3.28225357425726    1.68585389819486   14.33928543431561
C         1.74639419049109    4.98624898685683    8.93083424703336
H         2.24513739411971    5.63080843931356    9.64330524829680
C         0.49696447217558    5.31286279854633    8.44177378341705
H         0.01094144363225    6.22182668364290    8.76499624285802
C         6.34396735608830    1.20545183136181   13.03519032777752
C         6.95013187328132    0.55454464802245   14.10192434759213
H         7.98265243037037    0.24239917054442   14.04742443178205
C        -0.13489801940321    4.47000859294630    7.54011932078538
H        -1.11237016414765    4.72394674157436    7.15735306868864
C         4.90147986235949    0.72736314411790   15.31715869666246
H         4.32796199663480    0.54501229773136   16.21500558043659
C         7.39122805670566    2.36488922644413    9.94089127968493
H         7.16876748071559    2.93222564596876    9.05773561072784
C         2.47364100383284    2.70468008022519   11.97204377316126
H         2.08479167615876    1.73940667920398   12.31074947474792
H         1.79908712103835    3.06944785429163   11.19001197923629
H         2.40366485905659    3.40342314865511   12.81308664131564
C         6.56733588689682    6.57072343431197    9.46414951261125
H         7.26078264147889    6.95329496931461   10.19874004603090
C         4.75881725677279    5.61063189443582    7.58565961309069
H         4.03033687699102    5.25558225827222    6.86895436618629
C         6.21990489014407    0.31140542492507   15.24917036447123
H         6.68139190178257   -0.19480228942119   16.08428775362797
C         5.51016551702351    6.73956271070278    7.31397802762906
H         5.38431630099118    7.25495478140934    6.37260747363983
C         5.56277101570055   -0.04941567964454    6.71954934966271
H         5.92933268648075   -0.89594623989887    6.15768161783604
C         6.41876799954000    7.21512383213554    8.24682544386830
H         7.00217096932351    8.09737989168602    8.02767646771477
C         5.00363126635272    1.63839630568027   13.06081773369212
C         5.72630784618750    1.23276977765265    6.22198528548022
H         6.22143274268273    1.38406011162934    5.27350974801329

