99
CSD_code = IMIDAJ | q = 0 | S = 0 | Stoichiometry = C42H49ClO5PRh | MND = 6
C        -0.75214636002102    6.20759246756110   11.92747887392775
H        -1.76475890087514    6.18104101717139   11.52500626445298
C        -0.16191440571638    7.58990780652046   12.08752849339579
H         0.22403228456759    7.69843332709002   13.10179685152033
H        -0.95467751103612    8.32989495665273   11.96207051666104
C         0.94447022622201    7.87021877794579   11.05381085335933
H         0.48904688092970    8.28062220030881   10.14821121869566
H         1.63743201673172    8.62702095654658   11.43793906918118
C         1.72251942024623    6.63757538010675   10.65764032107168
H         2.23601634791451    6.75179918826294    9.70211414305276
C         2.21523582735732    5.67632363543401   11.53654027153337
H         3.05696997013045    5.08173251018213   11.18742527058635
C         2.10720387795102    5.78530871858384   13.04307532947123
H         2.98814885361182    5.32620336894194   13.49577036660751
H         2.11317613336085    6.83876783650671   13.32607876434570
C         0.84965330015183    5.08422402282780   13.58985355800863
H         0.53636839420826    5.54903485991550   14.53115743697245
H         1.09331366632363    4.04175768537990   13.80960794090447
C        -0.31049714147824    5.09833102737742   12.62201250381433
H        -1.01442627353990    4.27771582887181   12.76694880468164
C         1.16367910536234    5.37852079972786    7.30559857818751
C         0.07673842168828    6.23761762225434    7.35101931995805
H        -0.64600369073102    6.12441834534839    8.15341618691353
C        -0.06527089202920    7.22322352820264    6.39362843406780
H        -0.89965195338383    7.90645630414325    6.43069681614148
C         0.88502302957813    7.34991757943406    5.39310709378537
H         0.77944659775400    8.12060194485110    4.64389264890339
C         1.98297876194579    6.51366766633178    5.35935040959460
H         2.73496686258666    6.65862684797735    4.59942878742424
C         2.14828442754995    5.51742731170151    6.32055866544297
C         3.34355382248298    4.67488490250482    6.35775281183031
C         3.75803880675050    4.11402040176246    7.57079153919358
C         4.92339051550948    3.36582352464538    7.64955601645080
H         5.21300393778491    2.95972624062956    8.60648300109997
C         5.68664597234663    3.14792193388701    6.51779584124936
H         6.58791812148257    2.55803904518847    6.58326080209262
C         5.28345449168904    3.68120323238543    5.30440462715408
H         5.86918267048053    3.50656103349861    4.41451246812521
C         4.13183016555669    4.44030629154901    5.23065193504730
H         3.82685449538237    4.85002542375647    4.28041219593739
C        -0.86085035201911    1.97853971354216    7.50543037092303
C        -0.97102409729115    3.02727614089825    6.47040410248781
C        -0.00679617157074    3.07376978390734    5.46876973139038
H         0.81994112035042    2.38255945513145    5.51693143873325
C        -0.14591793108063    3.97164146409694    4.42847751118286
C        -1.25862352588314    4.80762465468134    4.39094938451986
H        -1.32335101402914    5.47534574974815    3.54981653732968
C        -2.24176635011560    4.77936667440865    5.36451644731566
C        -2.08148707365872    3.87790452889762    6.43380126342079
C         1.63992583422645    3.04005586117314    3.17003251737922
H         2.16159030045649    3.27650481471323    2.24311118747537
H         1.11367957750717    2.08623336663722    3.05555325126602
H         2.37006007300519    2.94990994058560    3.98099302666220
C        -1.82815907261158    0.07848304349389    8.61662796289838
C        -1.91002197495076    1.09125591602438    7.66932169563261
H        -2.80038611825745    1.17789606764455    7.06799719225643
C        -2.92013204993664   -1.74461082565518    9.69334285463967
H        -3.88860853902864   -2.23470701671128    9.60560510113665
H        -2.81885775226521   -1.32416918535711   10.69896143948896
H        -2.12793072116911   -2.48214472647712    9.52454886003699
C         0.40344254580594    0.82286517413042    9.23726026550245
C         1.65857429474860    0.63875697408115   10.08799322022140
C         1.56204337730150   -0.57751320799347   11.01896484530400
H         1.40162067152700   -1.49548757590173   10.45835142913038
H         0.76532760940731   -0.45293822675002   11.74850540184205
H         2.49948442733970   -0.68375669017674   11.56194217793463
C        -3.50870621473216    5.61818950369125    5.24259043203610
C        -3.47489190103744    6.55722345483491    4.03279927222869
H        -4.38828920505454    7.14885412970026    4.01449520924726
H        -3.41957862682090    5.99999743191605    3.10089569987747
H        -2.63059467699370    7.24050782399632    4.09019607952827
C         2.86498422001699    0.40786278697897    9.16476868241744
H         2.71651649984285   -0.49434928548433    8.57430980231319
H         3.76928403411532    0.28662624393292    9.75826657375274
H         3.01070646601840    1.23954101965619    8.48317934743632
C         1.89476587236935    1.87514737264914   10.97387529504505
H         2.49938594205209    1.60742772096545   11.83836284130159
H         0.94338008973835    2.27979900417893   11.33267392922429
H         2.42787051831423    2.65102514099639   10.43002587439924
C        -0.67564055645502   -0.04662719643571    9.37807139590183
H        -0.62162812215020   -0.83395269419477   10.10667461590574
C        -4.69026601999026    4.65256613068033    5.07000316284824
H        -5.61460902385208    5.21063542197031    4.93570299337195
H        -4.79017944425833    4.02049626474819    5.94620399657484
H        -4.53603126147277    4.02050847751963    4.19756739940693
C        -3.73520632501650    6.47718166117622    6.49310980540398
H        -4.67578809252365    7.01684458289900    6.40066176539974
H        -2.93420281169819    7.20197005461108    6.60655500271587
H        -3.77829317023606    5.86088782064908    7.38337588937076
C         0.28714161194873    1.84641848508335    8.29430209206342
O         1.31772306161839    2.75613250188381    8.09415240088322
O         3.05811958921155    4.31440811461284    8.73951631119874
O        -3.01934764620770    3.82814830409395    7.41355325330687
H        -2.62579091108866    3.48034694898594    8.23627564877681
O         0.73808423328452    4.09711260911113    3.38338933401192
O        -2.91308670241420   -0.73999443138941    8.71016591194784
Cl       -1.38963099098258    3.73932368039933   10.02629443980515
P         1.43116473817193    4.24536504057829    8.70481374776888
Rh        0.43422746166315    4.95621845418115   10.60467754762075

