97
CSD_code = IMIDEN | q = 0 | S = 0 | Stoichiometry = C42H48O5PRh | MND = 6
C        13.10387881424483   -3.38731381921551   10.98487953089276
H        13.56400191453383   -3.03733331148725   10.06182249045324
C        11.79924400297983   -2.97717756646548   11.24619924790120
H        11.33842934846181   -2.31936496058192   10.51493769024779
C        10.80891056649083   -3.78023877405902   12.06371117163872
H         9.80380582946867   -3.61029134728640   11.67232525338999
H        11.02360001145616   -4.84345688564887   11.94604205314376
C        10.82885583321682   -3.38149302328008   13.55090723027338
H        10.11898126417851   -2.56468814677129   13.70431071014440
H        10.49992904863320   -4.22188643558492   14.17234024750203
C        12.18536951381776   -2.91459271005875   14.02242319120338
H        12.14851421468359   -2.24199557314514   14.87815039974106
C        13.38692600494107   -3.54980580971738   13.76246045790042
H        14.22932857408584   -3.30919359870914   14.40791862562200
C        13.49969425569895   -4.86287408752717   13.02256119029723
H        14.33123495913448   -5.43561437755781   13.43784386203664
H        12.59246711269549   -5.44583628587761   13.18476094792189
C        13.74575950497528   -4.64765911519254   11.51916940795259
H        13.38236298831889   -5.50911209394170   10.94766438984180
H        14.82215692559038   -4.57463593319437   11.34399729467181
C        14.57600401176354    1.09718755600899   10.41049462825787
C        14.35567707882910    1.82725874529529    9.23399212677525
C        13.31528728242789    1.41677163521921    8.29253427988842
C        12.89531811360626    0.07937858320610    8.29104890975297
C        12.07867074511222   -0.40382819293534    7.27851438348059
H        11.80659432544405   -1.44841917431620    7.28811890980892
C        11.61327509125675    0.44787695412750    6.29434550412788
H        10.97099607229829    0.06649245241794    5.51542072121671
C        11.95049587103264    1.79105631786203    6.33050316103893
H        11.55810746717323    2.46873771920136    5.58753305611008
C        12.80168244508862    2.26282267242323    7.31011933865015
H        13.06153050611586    3.31029179979672    7.32712501189488
C        11.14374142419091    0.61387413667346   11.87018226172126
C         9.76145158241608    0.43369950972580   11.73958290259700
C         9.05289306866887    0.56759567067551   10.39663903211788
C         9.39944728626631   -0.62447091535014    9.49938435790953
H        10.46723357879256   -0.66478879503472    9.31495075184800
H         8.89515606523396   -0.52872415093468    8.53976372335748
H         9.08033843051171   -1.55383274977555    9.96738456260584
C        14.15113905167725    0.53465373710013   13.84079213662591
C        13.10642308377480    1.28209283641881   13.26365877853678
C        13.25292316026985    2.64085336771824   12.99446302395816
H        12.43519038841514    3.16409893662233   12.52213104775480
C        14.42299748503305    3.27835927599913   13.35494956964623
C        15.38475219821234    2.58086869630296   14.08824532281182
H        16.23774254386574    3.14970255613490   14.41706261727364
C        15.27893316403940    1.23152924660019   14.35491608278297
C        16.32915769149699    0.47238852004573   15.15467966967707
C        15.62960868403156   -0.24193615105910   16.31951043618897
H        14.87966942015002   -0.92805027532627   15.93751330296130
H        15.14244905273072    0.48477104316189   16.96705858354798
H        16.35171922329622   -0.80407174790527   16.90870305406472
C        13.86213867065182    5.28258026748265   12.21164288875856
H        14.33698381840862    6.24426623144190   12.02031835857662
H        12.87889215581703    5.45303146697672   12.66520963460046
H        13.73331208017562    4.74546891058899   11.26472525804160
C         9.66865254692469    0.11439806443317   14.15620416356954
C         9.05609319546767    0.17250436990631   12.90503385510074
H         7.99560845717874   -0.00715313309858   12.88509355475424
C         9.41040754531784   -0.28991426578646   16.48516346556254
H         8.60352384470094   -0.61042752662084   17.14246627749503
H         9.77940705441079    0.68627883324212   16.81554416002666
H        10.22612037190939   -1.01887463920271   16.53071906589245
C        11.74955458829687    0.69820913657719   13.12359287638207
C        11.01111572191238    0.43456074112791   14.27398253381213
H        11.50665892547712    0.51012128487584   15.22861947844745
C        15.24847792537992    2.85287003701539    8.92136539629179
H        15.11211028606905    3.42205718782876    8.01407304043554
C        16.33058670086721    3.12519956674306    9.73641842255459
H        16.99827903288429    3.93596612147823    9.48437143054164
C        16.58239779365325    2.33805042502397   10.84822583434087
H        17.45151811944553    2.52139850243736   11.46075013121372
C        15.70937948857497    1.31653396376936   11.17241590908734
H        15.89264297793599    0.68636511663441   12.02570484308724
C         7.52860257888900    0.62102494013485   10.54877043815917
H         7.23057968717969    1.42233693088563   11.22030437315283
H         7.13230122456784   -0.32106052728255   10.91912660827105
H         7.08020117883937    0.80995047961811    9.57547208999017
C         9.49811965251575    1.87293630930488    9.72191647923427
H         9.26223609192264    2.72260370853644   10.35971068160370
H         8.97940586241849    1.99731189372826    8.77340173358367
H        10.56491761027211    1.87216707443942    9.52442566552115
C        17.40637546026674    1.39104377770594   15.73733543693040
H        17.97923464341901    1.87683157162857   14.95088459542788
H        18.09571899007789    0.79993574469367   16.33763839301784
H        16.96588589271712    2.15212471786942   16.37704661101380
C        17.01612242134488   -0.56619618782615   14.25569612766895
H        16.27695202001902   -1.22039566783169   13.79907603581298
H        17.70128213015913   -1.17409837602578   14.84388000113308
H        17.58559846161569   -0.07227137366154   13.47008234788708
O        13.25361891185140   -0.79733538011967    9.28750625916527
O        11.98500539280207    0.69612519355915   10.77024671186299
O        14.06568859093934   -0.77081067908926   13.88521014240671
O        14.72317702534683    4.59367163912812   13.07754071379757
O         8.84945337362598   -0.22259490742940   15.19724356998285
P        13.35683469121949   -0.19729970118073   10.81858352631288
Rh       13.15957052580152   -1.84576780455883   12.44341423758700

