70
CSD_code = IMIDEO | q = 0 | S = 0 | Stoichiometry = C27H33N3O6Ru | MND = 9
Ru        3.54534946349604    9.00909167629007    1.85143919739501
C         2.97868218726230   11.09281850374821    1.02807620255193
C         2.01328265027123   10.68146077447626    2.00671157818978
C         1.33219530677038    9.45085939812405    1.85680233497406
C         1.62757723547210    8.59944670096092    0.73378896715306
C         2.57852471227406    8.99826531652229   -0.22201943450223
C         3.31996291315906   10.21684494456873   -0.02682084394163
C         3.56330244183153   12.47340934181183    1.12751225580119
H         2.78138545168922   13.18475443210665    1.38510677052928
H         4.01111633609766   12.78771783828973    0.19041642849294
H         4.32022997839314   12.50399634156619    1.91312746510857
C         1.72590495456706   11.60422741624012    3.16010500291525
H         1.32427064066666   11.06171549279718    4.01001278485257
H         1.01489498698460   12.37827255215456    2.86588757034405
H         2.65036757069553   12.07616528386221    3.48402357615649
C         0.89580330494598    7.28889251579945    0.59509812855046
H        -0.06438734652482    7.43285846028235    0.09541122714250
H         0.71711117242108    6.85208429013608    1.57443788371868
H         1.48056077629210    6.57272738862085    0.02478770356733
C         4.40377255641931   10.58616542105393   -1.00664266984599
H         4.88990766096850    9.69248099833088   -1.38835836441062
H         5.16802771269054   11.18434951582670   -0.51809767660754
H         3.99551371487818   11.15219313711814   -1.84651849871732
C         0.21269258530029    9.06443146176448    2.78923452002012
H        -0.22464862783055    9.94007038544384    3.26011418529115
H         0.58021427833785    8.39857138986972    3.57060070216737
H        -0.57671671794003    8.55275934889036    2.24395756877003
C         2.79942635105740    8.19896745844594   -1.48034798661673
H         3.03264173388669    8.86054919235154   -2.31103372153536
H         1.90902038228471    7.63526157402937   -1.74535619861951
H         3.62800911248643    7.50066647761643   -1.35628248570759
O         5.15804585036001    7.86964669490214    1.24854098894645
O         3.41683526171970    7.36741071850639    3.09863481665080
C         5.44072655539313    6.90178962700038    2.03566390139977
C         4.45336081452054    6.61892012040243    3.08851582675140
C         4.52493637360824    5.58212750262651    4.03715231678004
H         3.66932354476228    5.55983603479101    4.70142579208696
C         5.51394478956503    4.65161806785890    4.26649042072276
H         5.33426039748333    3.98630343642253    5.10297349619311
C         6.70426449267877    4.44003699508306    3.58497940586715
H         7.33071522902918    3.63944131155264    3.95747050583756
C         7.18051871594544    5.12286508916003    2.47527093368306
H         8.13357263089632    4.77804694827595    2.09069802723680
C         6.62225857504449    6.17917544063832    1.78878810449138
H         7.17844533847853    6.55914397681537    0.93992202438287
N         5.68234458844776    8.94460707075288    3.82380996470766
N         4.79118640321405    9.66409578751519    3.20297419264501
N         4.80319736032403   10.92097943768384    3.53483148643543
C         6.34219499797069    9.78358377930218    4.63412650849796
C         5.77881108774876   11.06050144256105    4.44746666666085
C         7.49505564203712    9.35920026134644    5.43979633128855
O         8.49157024137907   10.01390448961997    5.61700233051601
O         7.31215423439844    8.12388785036241    5.91593918034682
C         8.39111485315780    7.55629338310932    6.65388531299188
H         9.33539372082555    7.82534698799885    6.16662735140770
H         8.39392701655762    7.98684878265988    7.66236826595092
C         8.19508801054709    6.05183410535372    6.69885897889540
H         7.24816570472570    5.81658192704602    7.17684663935765
H         9.00442297897863    5.59151466600641    7.25865084452396
H         8.17836550349299    5.65139169839093    5.68855079734754
C         6.06006518970093   12.33020433012490    5.12072747430455
O         6.51556592568419   12.44717271508596    6.22995709799653
O         5.71015275908269   13.36786900455809    4.34197733807946
C         5.92240328941296   14.66997767971027    4.88254389454923
H         5.08998164839538   14.90976180059682    5.55549249691663
H         6.84670822827386   14.66278650495251    5.47098717763261
C         5.99949124461902   15.66162415553861    3.73548683695268
H         6.82713662169712   15.40803643044953    3.07838608929798
H         6.15055618946313   16.66338817030145    4.12730884759703
H         5.07854251232890   15.63837054781263    3.15849716014321

