58
CSD_code = IMIXIN | q = 0 | S = 0 | Stoichiometry = C29H24N4Ni | MND = 5
Ni        1.80900171505614    5.64262253368846    5.59720280481040
N         1.54775172924332    3.79840707744110    5.46640756526131
N        -0.28516662904544    5.61990271811841    6.14369868604462
N         2.23360265097732    7.48596242812746    5.68724659265454
N         2.42732846729766    5.54253434224339    7.50311516776890
C         0.28536197235971    3.35896626338783    5.80870296185714
C         0.28198285700822    1.95109654423073    5.78611260147443
C         1.57162445033913    1.57051896175722    5.42664623519477
H         1.93135136120304    0.56461707400847    5.31444051796598
C         2.31726833216009    2.73163971876397    5.23222843054905
C        -0.82807185925261    1.00239231261948    6.09410381943137
H        -0.45894625859180   -0.01903442764845    6.02383381353633
H        -1.65033453846011    1.11402361051110    5.38620817480944
H        -1.21567679663570    1.15624979313070    7.10220215982159
C         3.74866875479157    2.85930313630682    4.83653851456734
H         4.34646337171876    2.06844909002925    5.28578592806670
H         4.12590828862035    3.82967579694566    5.16217158861392
H         3.85225873337550    2.79713351822660    3.75271742373425
C        -0.70795982263843    4.32970098156521    6.13990823015209
C        -2.04751281128132    4.02806250859305    6.45073740433787
H        -2.38175704702021    3.00620044729291    6.43553437383061
C        -2.92241886134199    5.04089671845940    6.76038172607314
H        -3.95405907313944    4.82026143756329    6.99691442158136
C        -2.46804789247289    6.35753139918961    6.76294949074615
H        -3.12535862469152    7.17896378818065    7.00077258444772
C        -1.14297943323636    6.58259360209963    6.44464720011290
H        -0.75107709371548    7.59458876543138    6.43230566170101
C         2.56666959409574    7.83991520599875    6.95349022715115
C         2.77667040641074    9.17943983812185    7.34878250258028
C         2.61309307125159   10.17993900677702    6.38132441530321
H         2.77167777606976   11.21548418320803    6.64385267007097
C         2.24590428448070    9.80788143575968    5.10667362934621
H         2.10235846050110   10.54594379926709    4.33320920723864
C         2.07080933785982    8.46005493645956    4.80274474327158
H         1.80012951427624    8.16476902698817    3.79779746817977
C         3.13838724446395    9.45640595382762    8.69953236070496
H         3.30392636721014   10.48774130610285    8.97553640206973
C         3.26846576457300    8.46443297233502    9.61221386763509
H         3.54201970340128    8.68299948708093   10.63424649218319
C         2.68700560293164    6.79888930880223    7.92162563658974
C         3.03712880142442    7.10529956068175    9.25513047697108
C         3.12611452012456    6.03937342699782   10.16107020515779
H         3.39674424335785    6.23057047871617   11.18949224134268
C         2.85899818312928    4.76377613941180    9.71596318033983
H         2.91425748639112    3.91942252091413   10.38504116629752
C         2.50948148602206    4.56146056149138    8.38020679391122
H         2.29116998372944    3.56628607082950    8.01537856322816
C         1.87950572783937    5.60552349349726    3.71024815594059
C         0.71864232972510    5.50711103289786    2.94294368911494
H        -0.24087196187290    5.35176935908353    3.42035448802162
C         0.76488379065700    5.59867849188646    1.56059211327965
H        -0.15012439728612    5.52082268830420    0.98936609483186
C         1.97222677953980    5.78150224048140    0.91064440080199
H         2.00760511180994    5.84806853760588   -0.16760485956869
C         3.13462534254230    5.87142021011130    1.65431647000818
H         4.08601770548842    6.00983290583274    1.15840112875390
C         3.09112883993262    5.78413651797888    3.03738282249960
H         4.02284295723438    5.86308916229807    3.58632916761513

