69
CSD_code = IMIXOT | q = 0 | S = 0 | Stoichiometry = C32H30N6Ni | MND = 6
Ni        4.65831246899542    5.86593379342821    3.93799715817322
N         6.21908854784564    6.13998658290462    4.88823676658674
N         5.93903587369754    5.05758430115246    2.51223355483339
N         3.16863739573096    5.35226779135849    2.97928803380985
N         4.22007993796024    4.04757168207365    5.03910795065386
N         3.29089106741992    7.11530232852512    5.01332499922617
N         5.11450730725427    7.98622389740764    3.20578867468502
C         7.36536712239114    5.72017224912846    4.24674319111311
C         8.47769361276866    6.00866269081133    5.05710768257939
C         7.96213788535786    6.60619839770529    6.20220055392160
H         8.52371952402482    6.95751553185187    7.04824000014917
C         6.57512626648634    6.66768425967236    6.06430313651284
C         9.92403745325071    5.75138714068542    4.79788059814662
H        10.51599168691790    6.15758977700064    5.61587263966295
H        10.25072509354221    6.22542318681096    3.87142276748761
H        10.12916095901229    4.68199418680457    4.72977059280602
C         5.61717712830393    7.21928611010552    7.06704853020114
H         6.09621195804885    7.26848898022303    8.04288664115138
H         4.73084263180777    6.59135329979861    7.13557993377332
H         5.30017032809714    8.22723097162321    6.79147135582917
C         7.21336133322936    5.09635123139070    2.97578326288982
C         8.25877712917702    4.54330348909546    2.21366055291443
H         9.26624125720963    4.57430873212044    2.58934967964401
C         7.98255648594984    3.96116656164134    1.00002004440296
H         8.77680089723546    3.53209117922944    0.40529062678236
C         6.66661628369130    3.92738925741600    0.54630581637035
H         6.41152306219620    3.47734266748495   -0.39969701890827
C         5.68596284223737    4.48673762309575    1.34327109787917
H         4.65230446832719    4.47728617731508    1.02251440295328
C         2.56850504703096    4.17521562179443    3.37642623301972
C         1.42733964850077    3.95666011680005    2.58519005757131
C         1.36608279471603    5.03228986270029    1.70416819577563
H         0.62058502068176    5.19773497892430    0.94825026392438
C         2.45059556332817    5.86504620367193    1.97350235252799
C         0.44564622799087    2.83409059058774    2.63231605591476
H        -0.36515273006546    3.03459139275212    1.93434887290529
H         0.01845368446954    2.72160685040372    3.62945942725415
H         0.91077690344881    1.88923155680874    2.34674472492696
C         2.79469725989819    7.13110983467111    1.26316428633441
H         2.34187303697116    7.13507131441085    0.27363293508287
H         3.87406540565736    7.22908531019817    1.16726921983157
H         2.42279804428112    7.99884287886507    1.81218831199862
C         3.16948617199553    3.43558418165443    4.44026243220843
C         2.75083269948187    2.16577203032735    4.87655879644107
H         1.92197543754945    1.67918571118308    4.39383838620862
C         3.41473296124342    1.54884196359013    5.91066305701820
H         3.10350221619833    0.57190041249942    6.25383948288630
C         4.49447855427665    2.19265373740931    6.50799836898540
H         5.03967376553372    1.73748309723182    7.31946448357608
C         4.85465356781240    3.43830599407159    6.02864055733629
H         5.68999424594614    3.97337237399915    6.46305327637042
C         3.27994749899911    8.40305671861139    4.65136725315684
C         2.18724286175740    9.23324927760558    4.89472991016192
H         2.19761613053775   10.25732773323378    4.55456247925771
C         1.08583709173241    8.71628256410438    5.54981317098855
H         0.22270181410543    9.33460294297118    5.74701352995848
C         1.11478488724492    7.38772136797208    5.94789084922203
H         0.28394991850592    6.94685939042641    6.47527779681318
C         2.23433274464040    6.62962700903222    5.65167935910631
H         2.28516198726466    5.58960039263330    5.94454937945476
C         4.49351257527449    8.88440038219161    3.97672759565127
C         4.98019285743814   10.17728964279030    4.15811349442981
H         4.47062565055847   10.86549185085144    4.81503277799223
C         6.14187085838981   10.54917376680584    3.50742242150929
H         6.54841286254936   11.54179913461874    3.63332467528807
C         6.77282034085100    9.62090414352000    2.69246112568204
H         7.67424847951112    9.87334679204939    2.15702001192660
C         6.22064651765537    8.35629776183293    2.57667154135388
H         6.68574138788263    7.61005903633463    1.94635962371634

