13
CSD_code = IMIXUX | q = -1 | S = 0 | Stoichiometry = C2H4Cl4IrN2(1-) | MND = 6
Ir        2.01336700400408    0.31027363489029    1.95809379779824
Cl        1.75284820240698   -1.97444791916289    1.85784441755246
Cl        4.21224404889300    0.09942035825237    2.60439530827592
Cl        1.30380026043112    0.33356140037006    4.22802599310661
Cl        2.64961312483217    0.38107817741695   -0.33248719664284
N         2.03931209021107    2.26706845126585    1.98521916600683
N         0.17105947194141    0.69115816552226    1.41853825711935
C         0.91845405700276    2.84297854101876    1.65964721247373
C        -0.13605555872903    1.95354739629586    1.34016403849017
H         2.83024455140141    2.85808118031367    2.22435462928242
H         0.79477982445879    3.92034225307577    1.63297474068230
H        -1.12186954896750    2.30365999533383    1.05323029259110
H        -0.54809752788625    0.00767836540717    1.20039934326371

