67
CSD_code = IMIXEJ | q = 0 | S = 0 | Stoichiometry = C34H29N3Ni | MND = 4
Ni        3.16063523205013    3.94086489313276    7.19417406127835
N         4.36862364518527    5.20227415772899    6.32175786764857
N         4.43193280868406    2.58342409907590    6.61828533008319
N         1.78089126640055    5.21933539376668    7.58251740093432
C         5.10872528816749    4.49193866248233    5.41175322484352
C         5.65894593840937    5.36935218046676    4.45300769362667
C         5.22465109330854    6.64209113636440    4.82055130203965
H         5.45490731708214    7.56353875326337    4.31973624250183
C         4.44280690234911    6.50147944230367    5.97223427794014
C         5.27248245436093    3.09835376936825    5.67844995877757
C         6.27332224013093    2.30236511723925    5.09651845252359
H         6.93999094770434    2.74641284060128    4.37559001987263
C         6.40178899700718    0.98722343333178    5.46716159500393
H         7.16947220654301    0.36520180172606    5.03087662725766
C         5.53240430379657    0.47274519926802    6.42675773540532
H         5.60077429306755   -0.55315465727016    6.75047784045426
C         4.57645032502475    1.30560401925724    6.97010041636264
H         3.89662258612462    0.92427854803128    7.72052089850370
C         6.43713962333492    5.05812730601282    3.26126183900265
C         6.06299167914647    4.01956755257677    2.40815118507976
H         5.18856508097167    3.42915431989934    2.64527343930244
C         6.79022256827293    3.75235219863580    1.26409149454770
H         6.48816765279174    2.94437758882502    0.61248066990516
C         7.90019097718703    4.51879397594366    0.94779993592384
H         8.46914008568703    4.30708583500902    0.05410987791185
C         8.27298057763764    5.56095635623726    1.78042947062463
H         9.13565148565126    6.16464402832788    1.53594466038730
C         7.54662265379737    5.83147506935832    2.92470423083362
H         7.84216218099674    6.64027138647263    3.57749159036726
C         3.86315063504297    7.57903843201369    6.75941948220124
C         3.32647736371702    8.71011133605573    6.14458346741717
H         3.30958537380514    8.76965168648503    5.06568215228427
C         2.81268328329646    9.74374064323554    6.90257873451398
H         2.39749494000495   10.61420462058410    6.41352008242617
C         2.83193578257730    9.67150042581847    8.28637918936161
H         2.44129028182868   10.48703064834152    8.87869667166957
C         3.36618214380096    8.55467643667198    8.90753084034948
H         3.39252764250068    8.49942868297745    9.98687012256079
C         3.87559590356923    7.51666794930521    8.15248303787672
H         4.30855186201417    6.64943315554385    8.63229251032149
C         1.16377559675490    5.78650380808512    6.54068755357576
C         0.32964997464259    6.88349270007868    6.70428801798156
H        -0.13503041687738    7.32478865491298    5.83540563764951
C         0.10031170853043    7.41387364551446    7.96482640377759
C         0.71825138436145    6.77825826112119    9.03790037077297
H         0.56306702882346    7.12863586081740   10.04601278932806
C         1.54474381062485    5.70066671551003    8.80291218315269
H         2.03375479796566    5.19764124369678    9.62657278490769
C         1.39670135464235    5.19813808303358    5.18565305005465
H         1.97460590879864    5.88735034624754    4.57097803671016
H         0.45092284380692    5.00072416381101    4.68396085572737
H         1.96038121881391    4.25958617272121    5.28465086188874
C        -0.74898773645684    8.62417577561681    8.16221678147720
H        -1.26834540822760    8.58425889683882    9.11665213805757
H        -1.47494511044101    8.72965530174200    7.36010902411123
H        -0.10989342878625    9.50757638136508    8.16163786628918
C         2.09332732479024    2.66268712840113    8.03800948694097
C         1.03017182885642    1.95418169986993    7.48166902303752
H         0.74247927499431    2.11103955677381    6.44885329873240
C         0.32331573811803    1.02962914456035    8.23634473167532
H        -0.49634237892841    0.48740394262583    7.78517572937540
C         0.65921368824092    0.79996533012780    9.55820380358305
H         0.10514848733987    0.07987713638402   10.14316127645777
C         1.71108725839298    1.49675379481347   10.12737651180610
H         1.98274192046006    1.32068965216538   11.15934454522324
C         2.41998114357120    2.41917144776248    9.37492722306709
H         3.25297456611059    2.94485673154831    9.83752438478371

