59
CSD_code = IMOBIW | q = 0 | S = 0 | Stoichiometry = C24H32N2Pt | MND = 4
Pt        6.86294391908489    0.61342574757501    5.59724631289547
N         6.33106962280922    2.38264992293069    4.20634570948213
N         7.41816473287124   -1.06414927260321    4.10310820755881
C         6.07366444961905    1.84732749140143    6.94285518750091
C         5.51067172059690    1.51507917158217    8.17383580124751
H         5.60153438477988    0.50759599973083    8.55504605531359
C         4.83651290195247    2.46003285585129    8.93241467431849
H         4.41284594091616    2.17978080097051    9.88684655402714
C         4.70011547508187    3.75837762986842    8.47516955428342
H         4.17715424689594    4.49589562283422    9.06708631765282
C         5.22875525916961    4.10569362713244    7.24378743852973
H         5.11405503800272    5.11619624826431    6.87181892142278
C         5.90340107149052    3.16220305977726    6.48634594976222
C         6.47720866892761    3.51558875740198    5.13844968794083
H         7.55039990617428    3.71141441832522    5.25027460007782
H         6.00777293157351    4.42962639489447    4.75430795843571
C         4.92704791266825    2.14597464626161    3.85139036003045
H         4.35196617970821    2.06047056956411    4.77829893606194
H         4.87156078192859    1.18710711632204    3.32466948070013
C         4.31450275686249    3.22703535395497    2.95492732725468
H         3.29833773075431    2.92904290787918    2.69078977308671
H         4.24693349313249    4.17252910169978    3.49540575988513
C         5.15766931649253    3.41142114473345    1.69613915334398
H         4.75592610317103    4.22117838413664    1.08362249612436
H         5.12510248322067    2.49521429588797    1.09928713841307
C         6.60199135505871    3.70833515354155    2.08954778817061
H         7.23423287157665    3.76870664004793    1.20120404199843
H         6.65781518452285    4.67128095595649    2.59968197151887
C         7.12684675349464    2.59255186715630    2.99862372093598
H         7.12362107056802    1.66484076871224    2.41811703088840
H         8.15900911677850    2.80371026295511    3.29488145929743
C         7.63192035703473   -0.70453431523338    6.87313505996779
C         8.17692027776485   -0.45208083402821    8.13084032026731
H         8.07808296712910    0.52816518932711    8.57567619520352
C         8.84317785284405   -1.44318004393579    8.83568923491598
H         9.25263165941657   -1.22468680480539    9.81222117893205
C         8.98995586863619   -2.70857458505972    8.29675644877495
H         9.50775443989294   -3.48180494077088    8.84603137185247
C         8.47848425817360   -2.97629627786009    7.03850095355659
H         8.60108748204269   -3.96011450496214    6.60303487978489
C         7.81102115342504   -1.98703136884387    6.33516272416740
C         7.25518458708838   -2.25288493165800    4.96003373788102
H         6.17980358338681   -2.45053395380883    5.04431431312277
H         7.72682054494971   -3.14301088243826    4.52583038083395
C         8.82815406357142   -0.80892560908406    3.78670841327118
H         9.38762357121671   -0.77967309334860    4.72654095772478
H         8.89301463035026    0.17950655681450    3.31907171633931
C         9.45479385829862   -1.83566859001153    2.83771250793934
H         9.51172732763370   -2.81197053271568    3.32172725868260
H        10.47583498794633   -1.52487345670374    2.60949608727521
C         8.63339941583834   -1.94207510962607    1.55571287901979
H         8.67846706594984   -0.99200527889864    1.01528888323015
H         9.04413741101914   -2.71514721886854    0.90306389497475
C         7.18158744507405   -2.25739578930060    1.90496582342480
H         7.11429291825911   -3.24954092951586    2.35411564430736
H         6.56515153076016   -2.26122550497244    1.00356267093828
C         6.64310506904801   -1.19751859941403    2.87121120635627
H         6.65831529404343   -0.23615023026623    2.34850005535573
H         5.60551699932096   -1.42330600475693    3.13606983373877

