68
CSD_code = IMODOE | q = 0 | S = 0 | Stoichiometry = C30H32Cl2IrPS2 | MND = 6
Ir        2.81834650688759    7.79407182226607   16.36721893307375
Cl        1.80160454699674    6.79238192220101   14.32465990509135
Cl        1.81997806330623    6.25758568274622   17.85178965734954
S         0.87737407386598    9.27454006316629   16.62974467924458
S         4.79737571459292    6.35434897686626   16.22796897552239
P         3.77647696674695    9.25255915697261   14.89642541892342
C         3.76023307066899    8.92448639965735   17.79706120416953
C         3.75266374148848    8.63339299693269   19.13716508894473
H         3.26747110410854    7.73872941708663   19.49795482741187
C         4.35360598717897    9.47900625818485   20.08503370246396
H         4.32224369017681    9.19836384811356   21.12836093391379
C         4.95547757246876   10.64228532468822   19.70123985278375
H         5.40474331587551   11.30389625353549   20.42812266742130
C         4.99082799224064   10.99898971965801   18.33805803513502
C         4.40749821405215   10.12303588520173   17.38323980944027
C         4.47054856625394   10.49081217482978   16.01616830871126
C         5.02652907126620   11.68168389259009   15.61532636248232
H         5.03249835996119   11.95290290499298   14.56788003258319
C         5.58026171839168   12.54582072035505   16.56758164661479
H         6.01775775629626   13.47992767985556   16.24601504739785
C         5.57437886626243   12.20316620214889   17.89273064140256
H         6.01347689030905   12.86324841979506   18.62782237390528
C         5.16953705619230    8.62638526585096   13.90977234175649
C         4.93967610570787    7.51551213592538   13.09869714348519
H         3.95522441101498    7.06861907404796   13.07818897075796
C         5.96857500709965    6.97763605565565   12.34902937688671
H         5.78284129948680    6.12034869076550   11.71830730478821
C         7.23663828834171    7.53291788591772   12.41193085808324
H         8.04153266347145    7.11232653588200   11.82704084294376
C         7.47413797166129    8.62036318037582   13.23558222691915
H         8.46563546209434    9.04518444213805   13.29693081748688
C         6.44814027355852    9.16616357886014   13.98720148428631
H         6.64378895674020   10.00575919814483   14.63790584091221
C         2.77909171193151   10.20561806628339   13.71977849000218
C         2.67645994837404    9.85060736822462   12.37955660118713
H         3.25283593458358    9.02376268817997   11.99308919086526
C         1.83324259684093   10.55779767966226   11.54108550899243
H         1.75590817788778   10.27783757294419   10.50060633240271
C         1.08658751322643   11.61609925091629   12.03100957502092
H         0.42686195817897   12.16272032450137   11.37325571856240
C         1.18480479907741   11.97158693542522   13.36713450455914
H         0.60348974617765   12.79682794288384   13.75221433591197
C         2.02272788613768   11.26854929682729   14.21106944590623
H         2.10009835346420   11.53846858168767   15.25556754273954
C        -0.59404893932113    8.36386311844444   16.03154480789111
H        -1.21044141655934    9.09962422035504   15.51285485014968
H        -0.26623591596851    7.60177277946528   15.32752154203445
C        -1.27964415954813    7.80334473519733   17.26468950362130
H        -2.32201044416823    7.56736077762121   17.05065415958407
H        -0.77039627890190    6.89311640024127   17.58517559177372
C        -1.13802541829404    8.86870663803507   18.34585740995515
H        -1.47119179032947    8.50497312891764   19.31774627393987
H        -1.72366109095990    9.75240587257758   18.08159107844324
C         0.34260496634663    9.20586988404695   18.38459586093331
H         0.91304690090098    8.42030743292074   18.87671902979256
H         0.56911838955471   10.16997326224578   18.83424658052219
C         4.24636596340814    4.79541933037664   15.43906370152649
H         3.34691594841847    5.00254912880969   14.86197436183364
H         5.05555874200254    4.49551321664857   14.77199556983254
C         4.03027034290335    3.80177959058760   16.56596186588738
H         4.05176502024024    2.77985776174128   16.18770145972214
H         3.06148348867437    3.98446828209207   17.03334901494460
C         5.13784152520893    4.06709601710211   17.57889306997941
H         4.99018910798354    3.50035459058377   18.49793438151540
H         6.10826832617573    3.80071568397645   17.15348376937789
C         5.07265410298593    5.55857671376958   17.85829186204041
H         5.98651594701812    5.97530769848038   18.27509455440051
H         4.22354877163761    5.80061626282436   18.49453714194505

