97
CSD_code = IMOFIA | q = 0 | S = 0 | Stoichiometry = C51H35F3IrN5P2 | MND = 6
Ir        5.51078025513900    4.89266672224998    4.91305531281245
P         5.17411715773426    6.56529776521255    3.30168409624989
P         7.79403825529067    4.73608829946375    4.60184465528202
N         3.47588591279532    5.02209999687004    5.34442060622986
N         4.73319335191955    3.47479412908056    3.60297210860614
N         5.20709811452340    2.70278650712763    2.66559638542560
N         5.80222563386532    9.18221377409647    3.64049414694904
N         9.53367228646563    3.38721996998749    6.18968421255811
C         6.04530657645899    6.46403151576623    6.15331747673409
C         6.37142427273483    6.37758300799024    7.49183723192361
H         6.32950457983984    5.42178170981639    7.99539531997558
C         6.77199481830134    7.49003751990903    8.24890804157555
H         7.01934249699826    7.34733562454652    9.29178889866803
C         6.86954888492729    8.73239555664379    7.68752821116722
H         7.19834216799783    9.58636557689191    8.26172049576319
C         6.53187592377986    8.90240094105396    6.33297891553441
C         6.59307845301645   10.14632733028712    5.66982089487319
H         6.92167987076321   11.02108044173535    6.21153474437078
C         6.23069969730450   10.23265407655981    4.35341600362863
H         6.26179480626215   11.17015342391009    3.81332808176813
C         5.75601881348195    8.01642364597632    4.23247240533522
C         6.10782156882679    7.77167219826190    5.58277594709771
C         5.95579725097899    6.63305661009642    1.66357131607337
C         6.48023039816131    5.45619544359782    1.13762264714968
H         6.42011397703110    4.53450029458672    1.70037084556457
C         7.07542962601057    5.46649594425924   -0.11158998157482
H         7.47930254978069    4.55080806825841   -0.51629106897842
C         7.14714622054414    6.64672542309450   -0.83244761503972
H         7.61385781189352    6.65606498082141   -1.80662436767235
C         6.61646646574372    7.81733335904782   -0.31023986559364
H         6.67046590505326    8.73420324560587   -0.87945644908894
C         6.01344352427431    7.81703271737883    0.93384431699127
H         5.60523935975643    8.72162932564233    1.35972137773772
C         3.45754651185492    6.98314086508284    2.88666723253806
C         2.85245959744047    6.30132087570774    1.83292712987106
H         3.44667268326816    5.64362777664286    1.21179270299505
C         1.50345314438603    6.46538524937555    1.58462295240419
H         1.03945658746106    5.93622291527086    0.76531965690227
C         0.74693654445503    7.30312140072995    2.38890074361664
H        -0.30825839124704    7.42848916557536    2.19613337993691
C         1.34377165114258    7.98045639281559    3.43947086689198
H         0.75417659860800    8.63480127109167    4.06522298518390
C         2.69261552379366    7.81681364730439    3.69601122597362
H         3.15823664611776    8.33881289713439    4.52100264418387
C         5.84718669376937    3.47445683511454    6.38745506632723
C         4.86774931881721    2.83296646782413    7.11572256083031
H         3.82072061793212    3.04426500737070    6.94257807664289
C         5.16762545685142    1.88631040940225    8.11143422190816
H         4.34970221786672    1.42193723852242    8.64526014407069
C         6.45712849088755    1.55043898913915    8.41798902009753
H         6.68158938864042    0.82904668002165    9.18999699384091
C         7.50935685998438    2.15520495346870    7.70587600839044
C         8.87710548900230    1.88157997540334    7.92291265826694
H         9.16286418120797    1.16931745378699    8.68293175072179
C         9.82688496217435    2.51406204547794    7.16454387786079
H        10.88327371482129    2.32926623428363    7.30849166199051
C         8.27028465409309    3.65624016084766    5.98270229278318
C         7.18671268361410    3.09908666351315    6.69508213699997
C         8.73517714823614    6.27666086093092    4.80259957264078
C         8.67568515601839    7.22555850230870    3.78336262799276
H         8.15863977067607    6.99042107887591    2.86207227417724
C         9.26440486796190    8.46487386867176    3.94862097072397
H         9.21034433415233    9.19470298909277    3.15398269442716
C         9.90590332715459    8.77264196870965    5.13763676681721
H        10.35516661539416    9.74562201239184    5.27205235521386
C         9.96636371656491    7.83370105449706    6.15356582186041
H        10.46430539736594    8.07427844209414    7.08138406209098
C         9.38215993838504    6.58996247296996    5.99146214719085
H         9.42555103399383    5.86026218566643    6.78509346084920
C         8.59251440270130    3.87068428604699    3.21739003207972
C         8.14102117838443    2.57473695740614    2.97724483990740
H         7.36610000618387    2.15986539531184    3.60477698905316
C         8.66126555465654    1.84274474687531    1.92811834556532
H         8.29408734323500    0.84636653678126    1.73495426809594
C         9.64196658043633    2.39642558853247    1.11965873945980
H        10.04520126669826    1.82924529836857    0.29341414663107
C        10.10891621992547    3.67550591558628    1.37248836841006
H        10.88245176578715    4.10185201500142    0.74986021311664
C         9.58815984898640    4.41802707500879    2.41833955704410
H         9.96352679328816    5.41186380800030    2.61169423828782
C         2.90245692912585    5.80416982158750    6.25644450091254
H         3.57223621567579    6.34748389559948    6.90900718559247
C         1.53439290193703    5.92947394513183    6.38587804727402
H         1.12222521346329    6.57856950921156    7.14122815632265
C         0.70984780087182    5.20936473919567    5.52770131404089
H        -0.36393866599887    5.29274661490482    5.59708852007633
C         1.29149252543961    4.38325318680918    4.59225323421953
H         0.69593783297273    3.79942374596299    3.90960543915101
C         2.68436136734348    4.30039658201479    4.52016668405316
C         3.37575900495086    3.47050386110184    3.57869671890657
C         2.96160062795205    2.61862624730850    2.54982182418808
H         1.96936856639257    2.36643265028090    2.23864952660641
C         4.16208471728050    2.16603050976913    2.01303449118476
C         4.37459873934719    1.25742895378459    0.86367937314600
F         5.33093920965293    0.33740348405728    1.07413618036383
F         3.25912017543821    0.57724199160069    0.53753707652502
F         4.74241575737305    1.91332048582976   -0.26210410353135

