61
CSD_code = IMOJOK | q = 0 | S = 0 | Stoichiometry = C20H37MoNO2 | MND = 9
C         3.85210259696715    4.25310920313762    9.93616818581135
H         4.62186744685415    3.77155498598146    9.30330763881020
H         4.06809193268577    4.03789035458876   10.98971792534865
C         3.89318920046908    5.78107698627106    9.71294654769477
C         5.24008866241519    6.31327305935283   10.20566341808967
H         5.31093728831877    7.38347571248413   10.02330590445506
H         6.05913368214594    5.82117962561881    9.68595033854491
H         5.35718967446335    6.13807726907073   11.27315196320499
C         2.75920556821854    6.44129713763235   10.49893749734313
H         1.80065915577119    6.06360457008360   10.15241724835873
H         2.77933302561894    7.52019704517976   10.36088894525965
H         2.85444283196792    6.22690800270097   11.56164426397428
C         3.73444243875878    6.07990421255209    8.22178614213983
H         2.82898263937798    5.61316602256238    7.84078519747846
H         4.58035562973757    5.68254444392918    7.66447631787610
H         3.67669133449124    7.15281251898538    8.04962573597192
C         2.31786815204067    0.99376005603364    7.27444526340999
H         1.77635253659428    0.04323976135564    7.24824574584839
H         1.71773667096653    1.70984560175225    6.69969013321862
C         3.60790171676033    0.75367381279097    6.48093283226188
C         3.24089618580848    0.48506878927208    5.01257639430706
H         4.13133551224284    0.24315370504294    4.43571552630475
H         2.77360144967377    1.36172432674992    4.56957835731708
H         2.54765448415980   -0.35040916882213    4.93454825419513
C         4.53099521853071    1.97245907062822    6.54018142666490
H         4.93986121240434    2.07592778513786    7.54632842935588
H         3.97854445100370    2.87825071152744    6.29351102629742
H         5.35672627439183    1.86008949665880    5.83924797588307
C         4.34160500857085   -0.46846685903380    7.03636545926474
H         4.54437096421861   -0.32027346477858    8.09595673152902
H         5.28662453503950   -0.61657108790845    6.51825479722230
H         3.73979248071250   -1.36764516107363    6.91647344889707
C         0.26153922457741    2.09638216086593   10.21970811382048
C         1.16603466913045    1.90238870897182   11.31043135460634
C         1.67876919661336    0.58528378025029   11.22569218035590
C         1.16913525296332   -0.00616990775879   10.03243476945336
C         0.23239417329257    0.92632471622071    9.44811462092259
C        -0.59708789612595    3.31383924057277   10.04384782928048
H         0.02114216801797    4.21080021715132    9.99958073988726
H        -1.28407216363760    3.41397845519003   10.88615343622596
H        -1.17958035549116    3.25013255916737    9.12749927341230
C         1.34492091229426    2.87680041327289   12.43253323097132
H         0.48922653243062    2.82963890886646   13.10964651905164
H         1.41721500188831    3.88972257060518   12.04072111040688
H         2.24593205260235    2.66241955485045   13.00314104085622
C         2.51917917895320   -0.13394662811814   12.24184435766156
H         1.94067382131925   -0.93971555793886   12.69867192695190
H         2.84416894064904    0.54285799293163   13.02842876378648
H         3.40545819867430   -0.56718854410091   11.77685858831773
C         1.26209814711408   -1.47582491708543    9.72451478545550
H         2.25498344406588   -1.85445854445715    9.96282606182520
H         1.06518112509445   -1.67972022396538    8.67416722175859
H         0.53048052499024   -2.02819810822415   10.31900954979709
C        -0.76299357960385    0.62312501639307    8.36436866923915
H        -1.75406814724062    0.50091721364442    8.80723967525489
H        -0.51464599519242   -0.29781735903103    7.84322046852414
H        -0.81568977257095    1.42697136866640    7.63092137831601
N         2.55773892771002    3.67485637398434    9.65072247905267
O         2.43343484966298    3.31124481323707    8.35868901808410
O         4.01660178448463    1.15416807950116    9.61737468869097
Mo        2.50694982195288    1.72108912086910    9.34731307569201

