71
CSD_code = IMOLOM | q = 0 | S = 0 | Stoichiometry = C25H40N2O2SiW | MND = 9
W         3.15254670457671    4.43530338137279    0.18623101081148
Si        4.54607235200456    2.25328275099320    0.03062455465662
O         5.16725848414119    4.59266179460221    2.55398865113771
O         4.79640027830757    4.66339023941868   -2.43429613354542
N         3.63286911986521    6.64927719418942    0.29414894290555
N         4.07174639980207   10.81250675058062    0.54059337934458
C         4.47507414228163    4.50562658832412    1.62787696996578
C         4.30126019275626    4.58949219610050   -1.38913660420333
C         4.17770449638620    0.83321503900324    1.30675477052815
H         3.15711611605160    0.47002205107500    1.18880662153417
H         4.82234913872568   -0.01362187498687    1.06783934002390
C         4.39901784363790    1.21869519440195    2.76182648581247
H         5.44723230589666    1.43805914386660    2.94096653312939
H         4.10244198098845    0.41208549118776    3.43285277857035
H         3.82582595819573    2.10637209875934    3.01476392001412
C         6.45356891216155    2.47731146820746    0.32524684916813
H         6.62039270778175    2.63882773517309    1.38945793528332
H         6.97552820738988    1.55468326169221    0.07129598823375
C         7.10078305120654    3.63084280286898   -0.42784106266639
H         7.00001889046806    3.49963765676076   -1.50186346854764
H         8.16290009534289    3.70017370706576   -0.19208066734497
H         6.62553960249623    4.57432066460138   -0.15515579507770
C         4.35481606953034    1.32244884050028   -1.67133827868685
H         3.52919578393545    0.61572179939028   -1.59593398790801
H         4.08698464058132    2.03335631341577   -2.45227934333130
C         5.58857657664262    0.55360972914672   -2.12825056653529
H         6.42109608189487    1.22993035550501   -2.29636164201410
H         5.38867075993107    0.02401280961738   -3.05999532915882
H         5.88442394264315   -0.17809452823932   -1.38076616113274
C         3.62611042353706    7.29407849595074    1.46381564032521
H         3.51290037342462    6.68692714768300    2.35138011296361
C         3.76456834610686    8.65526191506764    1.59892598769553
H         3.75000223677966    9.07619808298633    2.58955486060617
C         3.93177324749389    9.46770968737104    0.46131135369135
C         3.93002546407782    8.77804011426147   -0.76576845397753
H         4.05173378097014    9.29835416223618   -1.69999963887431
C         3.77831535000646    7.41201326692450   -0.79255245654660
H         3.78017620180625    6.90405704794709   -1.74673752858837
C         4.14815616519165   11.46124575875436    1.82799791856759
H         3.22947087673043   11.30139134031110    2.39843448160327
H         4.27660778831671   12.53124951408762    1.68861384976136
H         4.99379984420101   11.08697192889612    2.41262233170191
C         4.30153261855704   11.59124399898188   -0.65308800039075
H         5.23231251796757   11.29782906802664   -1.14808812126392
H         4.36989967009666   12.64402393410407   -0.39250020734380
H         3.47593962302939   11.47008620043204   -1.35875878988212
C         1.27399678521674    3.05968610476852   -0.20911743205073
C         1.12846348929509    4.22331439743647   -1.02441977143320
C         1.02379513193762    5.34619437466638   -0.17543442819839
C         1.10985471200531    4.89398428146777    1.18692503893106
C         1.24692303372904    3.48433205748371    1.16928858530343
C         1.00349653618550    1.66653443975148   -0.69135041216777
H        -0.07644204979488    1.49364008569357   -0.69657246837307
H         1.46117578926015    0.92086605315582   -0.04755028282381
H         1.37333071370022    1.52213966540695   -1.70317191543431
C         0.93423082468753    4.21094255941960   -2.51221911339888
H        -0.10087196023051    3.95839455206668   -2.75566501514539
H         1.58186872808763    3.47307354159044   -2.98378356443730
H         1.15501162767609    5.18384409404788   -2.94847092716122
C         0.63398793078984    6.72780960167152   -0.61055010162873
H         1.08460167808763    6.98957201098853   -1.56787126288663
H         0.92725784630437    7.48158818384305    0.12002232988000
H        -0.45156456365192    6.78117447119911   -0.72716194175172
C         0.77416383416184    5.70808824651093    2.40316524768288
H         0.96268789567448    6.76907329117543    2.24253073536525
H         1.35340654855354    5.38351154987524    3.26750736768796
H        -0.28461818741993    5.59090554195311    2.64995076666333
C         1.03554461844834    2.58831074197999    2.35275998954266
H         1.46114478777278    3.01869066874350    3.25783350297897
H         1.48248425851241    1.61094077804792    2.19599390363609
H        -0.03646537288388    2.44975638845930    2.51932213823874

