156
CSD_code = IMOSEK | q = 0 | S = 0 | Stoichiometry = C67H82N6Ni | MND = 3
Ni        4.74302346237338    3.65778237946283   14.24776513043991
N         6.02335096092285    4.83877689940596   13.98528011746720
N         6.83388765514238    5.44408893244360   14.59048147767767
N         2.70139908417435    3.19107071457269   11.98793072782746
N         4.49357276288008    2.07148650645054   11.67670742587215
N         4.36367848405411    4.51187436336933   17.12495898542929
N         5.55883793686067    2.72896261657120   16.98812510590630
C         7.83680460689361    6.26403721066243   14.63871592366598
C         3.81609896655180    2.75809759377166   12.63443065256520
C         4.73173709718784    3.52669292790632   16.25619630860288
C         8.29221872668637    6.85051858593859   13.36957653516920
C         7.36819076515641    7.19091859017242   12.37998760771555
H         6.31551548334326    7.02201061322370   12.55726458498241
C         7.78305227409289    7.74198129768186   11.18391207164552
H         7.05227034951714    8.01131970463521   10.43367122189328
C         9.13126956020257    7.95216673451281   10.94309443122713
H         9.45661111543275    8.38451754886717   10.00811001010196
C        10.06000611419193    7.59201541646356   11.90652723707909
H        11.11477870102602    7.73366379412190   11.71716245331103
C         9.64945669860152    7.04327413488268   13.10563421617991
H        10.38324487934043    6.74354535734091   13.83993829789118
C         8.41763374027516    6.62904629569518   15.91570452140008
C         9.20060129606046    7.78215538681972   16.05951672762383
H         9.38310708392086    8.41342817463106   15.20228095755139
C         9.71579116829219    8.14290280840448   17.28745219858252
H        10.31628008137006    9.03821091058707   17.36982210824668
C         9.46074190795527    7.37754170818534   18.41488182882307
H         9.86666419414972    7.66415631087082   19.37384998369553
C         8.66794768400626    6.24766925735151   18.29610612948061
H         8.44604913684865    5.64776183664511   19.16812970305394
C         8.15482734164771    5.88068241849584   17.06999057085970
H         7.53521089083532    5.00077260037072   17.00058493393813
C         2.69776418915888    2.79678366096893   10.67102649376316
H         1.90018425522572    3.05239524561537   10.00356448069078
C         3.83266035448024    2.09542832793767   10.47475446848232
H         4.22488993925750    1.62380376814943    9.59700880283801
C         4.95249807751859    4.32851166169603   18.35262429482225
H         4.78979528722769    5.00139847861780   19.16905172432699
C         5.69913346460146    3.20816052143925   18.26886098795983
H         6.29933354527165    2.70640197938908   19.00014304291638
C         1.57902872919065    3.87108217785450   12.52980489696212
C         1.65689019365094    5.23995466877555   12.81245720027952
C         0.50796983610391    5.87591349535032   13.26100038393547
H         0.52835939665015    6.92745966719274   13.49233978288827
C        -0.67797401131490    5.18117009006213   13.41147368598157
H        -1.56262928885792    5.69734281799987   13.75494200058898
C        -0.73641723279465    3.83160328133512   13.12633893169081
H        -1.66734551373564    3.30036368545366   13.25331073356415
C         0.39028357752308    3.15178320786265   12.67979553469735
C         3.25107040253157    6.14640670936093   11.10444105046422
H         3.35164611660193    5.19257138915550   10.59533353539584
H         4.18039694627349    6.69606488369391   10.97120691252652
H         2.44885541822487    6.70755609857731   10.62630788965943
C         2.95536870529006    5.98228325305590   12.60038966967326
H         3.75559929089018    5.37199818456101   13.06451415410057
C         2.98381664991400    7.35899680926285   13.25475575377286
H         2.28211962877691    8.03782160557889   12.77274922713348
H         3.97732039997740    7.78921036354277   13.14906258435814
H         2.75077424380444    7.29177771671629   14.31321314899764
C        -0.76104071491318    1.38959104151801   11.31532476115296
H        -1.75561116488199    1.63636667645100   11.67845848784007
H        -0.74842294006181    0.33518854819958   11.04726992864197
H        -0.57122273167087    1.97444699982090   10.41710776347546
C         0.30175806893719    1.67104625384431   12.38028904953882
H         1.26094497341735    1.31837923570808   11.99179831924489
C         0.01459976314926    0.88223505612029   13.65924105200762
H         0.80295086181455    1.05591416763138   14.38677834816340
H        -0.02511733687601   -0.18255109697118   13.43836937606218
H        -0.93513433311176    1.17854184931836   14.09805223556998
C         5.67910729356606    1.30483999488967   11.83969556605702
C         5.56415145408504   -0.00593939159167   12.31908653581618
C         6.71778547732032   -0.77096175686736   12.40557841930311
H         6.66900406747104   -1.78164496015226   12.77579011650336
C         7.93727444042733   -0.26115381719659   12.00154602650248
H         8.82370896280701   -0.87530873687390   12.06548707523380
C         8.02523821398735    1.02206778173313   11.50031542716857
H         8.98055704767928    1.39483588256358   11.16545658456177
C         6.90008856373949    1.83344066168501   11.41620824655852
C         3.52797797949941   -1.09835829774235   11.37728787923025
H         3.35436462491232   -0.29915223846465   10.66204594135289
H         2.56819712940113   -1.54831355733679   11.62371106180935
H         4.15120953209366   -1.85403678318842   10.90241725790054
C         4.20629816419566   -0.58455638971596   12.65414215496912
H         3.59281453123265    0.21335345012743   13.08648278453484
C         4.27014624420582   -1.72496749388957   13.66637755256808
H         4.70683708443857   -2.61824405646144   13.22505432091669
H         3.26249200037017   -1.97755915464649   13.99109606157056
H         4.85725087004465   -1.43154673417435   14.53127392263500
C         7.07406465995199    3.12156505362642    9.29491158046601
H         7.96376882933441    2.56951759730507    8.99868008955186
H         7.12600557840238    4.11772477566938    8.86126099548575
H         6.20553907845340    2.61327743311831    8.88254160031935
C         6.99379835344721    3.22001282443303   10.82176671223815
H         6.09430251581091    3.78113769463095   11.09435144330054
C         8.19354018688133    4.00339471694469   11.34998277629590
H         8.15064136747606    4.07152148484276   12.43201257777803
H         8.17971642082970    5.01174169215902   10.94434577780388
H         9.13516839958734    3.54111752269596   11.06581269903029
C         3.36040439284008    5.50749880334157   16.93275039153521
C         3.70848929190803    6.86118239746096   16.91356785015426
C         2.69235661848085    7.80576721762703   16.81820558148411
H         2.94198677829410    8.85528282344429   16.81705586099110
C         1.37031760059499    7.42393068295257   16.72873962359328
H         0.59466173046020    8.17117448472028   16.64500044239869
C         1.03806276003126    6.08331548508081   16.76845875852655
H        -0.00012483090742    5.79994759808298   16.72276982073972
C         2.01584068358302    5.10795943992674   16.89143791579394
C         5.51318623656892    8.31193360136573   15.92826053776937
H         4.91609082600551    9.21886537545133   15.97334186858520
H         5.36842857330037    7.85018548485168   14.95668823178098
H         6.55976045376919    8.58930138128078   16.02673680829693
C         5.13626066500399    7.33259128433279   17.03931787981612
H         5.80177112380166    6.47191176982005   16.95909874737611
C         5.36413118881311    7.98599992970053   18.40547308888644
H         4.77595728108225    8.89599069374173   18.50008743957326
H         6.41622159996005    8.23782028812520   18.51886335971387
H         5.08303581681416    7.31629442104442   19.21543355665581
C         0.27818990972718    3.29044908787547   16.50631074679311
H        -0.53438695617924    3.74838076198840   17.06614873738862
H         0.14177058210526    2.21234353638799   16.55532101227287
H         0.21457754807191    3.59968427737993   15.46772888274038
C         1.63745865336692    3.65922531926951   17.09258576362204
H         2.39009657998961    3.04225044028883   16.59446980465905
C         1.63765548613365    3.35480727187228   18.59666109153850
H         2.61288242091686    3.53422626725370   19.04346013772719
H         1.36589296647843    2.31567919283797   18.77006465524871
H         0.91136012656772    3.98811979443098   19.10345197744077
C         6.05600747186207    1.43612504311190   16.64344082469230
C         5.26458569191325    0.32650118187749   16.96283746505694
C         5.77260241729010   -0.94172722439825   16.71861775384514
H         5.18281236676325   -1.81050217949526   16.96742430805919
C         7.03097753928026   -1.10951681937976   16.17245496062550
H         7.41146584143524   -2.10398940767405   15.98973209822941
C         7.80288350049107   -0.00702694096860   15.87003453414803
H         8.78734352355119   -0.14715953400307   15.45421307263766
C         7.33762961731160    1.27906979079969   16.11050890122610
C         2.85919566506079    0.29802331754974   16.39729513643925
H         3.08282942930790    0.98588844751064   15.58213782310492
H         1.85065393351503    0.48588695418037   16.75885189784678
H         2.90485846128330   -0.71838325490352   16.01608551394610
C         3.87308932456788    0.48888571834027   17.52732823647924
H         3.76240170370736    1.50421542054707   17.91483199305619
C         3.58919260398147   -0.46866981945586   18.68524697246965
H         2.64764358510525   -0.20081131016235   19.16042116566626
H         4.37859040251747   -0.41243880479271   19.43195337795916
H         3.50874816578825   -1.49728361061766   18.34362723240577
C         9.07464969080674    2.35315345476375   14.61252598608318
H         9.86317386658959    1.61178446177051   14.71844492155376
H         9.54465862362847    3.31171935635164   14.40144841612620
H         8.44505658281120    2.07702021303989   13.77135533535686
C         8.23561326466814    2.46737263050514   15.88187716859465
H         7.60171552247080    3.34906521348084   15.77186280101157
C         9.14948883434217    2.64736739138230   17.09856507533554
H         8.57162491362596    2.78505166242800   18.00949911516067
H         9.78566523082051    3.51899752921834   16.96346754613475
H         9.78049978909119    1.76952469758731   17.22484972612746

