28
CSD_code = IMOTOT | q = 0 | S = 0 | Stoichiometry = C12H11MoNO3 | MND = 9
Mo        1.02234012698788    0.88571589544367   11.21115352947821
C         2.13934416783189    2.39199682036931   11.63242408822987
C        -0.20286683034741    1.67716865205416   12.46842450233214
C         1.84475872727525    0.08177853491038   12.75772785084276
C         1.50123903640753    1.17087227450345    8.85609012474725
O        -0.97298781165302    2.14455426953444   13.17438270464176
C         0.11808700766073    1.40535315106335    9.08019720097965
N         2.25214570542624    2.06017564966598    8.15138967566810
H         3.25206377015694    1.93514772826047    8.19556066263523
O         2.33808774353832   -0.43970983134609   13.64794421242785
O         2.82013730931080    3.29999889940577   11.79854005855679
C        -0.47736433805576    2.69006102552524    8.57573900471389
H        -0.79212086094919    2.56751931151019    7.53211239445529
H        -1.35694981938422    2.95621035729928    9.16573049155887
C         0.57697678936642    3.78945373421146    8.66561007885251
H         0.17964405147666    4.73845408016940    8.30647657114726
H         0.87567389784163    3.91151338328509    9.71065636201665
C         1.78681198710295    3.39643684574330    7.82382876826797
H         1.51800892649800    3.42275076346632    6.75838858210711
H         2.60210365394954    4.10584599081608    7.98414590014970
C        -0.11247746822640   -0.83284995253340   10.05446251924323
H        -0.74740180762085   -1.63383885047340   10.41650882109376
C         2.07432825600218   -0.04537279932756    9.30886903388258
H         3.11752406400973   -0.25235603375468    9.08783376510947
C         1.26900592898149   -1.03092889945867    9.89543824750282
H         1.70851749165491   -1.99122602085037   10.15034022264027
C        -0.66408112471101    0.40424334972720    9.67950644059003
H        -1.73674858053119    0.56203167077968    9.76401818612909

