28
CSD_code = IMOTIN | q = 0 | S = 0 | Stoichiometry = C12H11CrNO3 | MND = 9
Cr        5.16514067527423    0.82151440831309    3.86257292187996
O         3.97253277732307   -0.24381206938235    1.35362836161712
O         6.87663034753841    2.10988564635921    1.79902472214633
O         3.44235142595170    3.11338476810517    3.06633298260094
C         5.57231156612934    3.78040522537111    6.28643013718752
H         5.24734535393418    3.87166074084868    5.24693523383673
H         5.96623441264535    4.74179199859538    6.61502861717028
C         4.42496190135106    0.12136541213088    2.35392211803426
C         6.25227819971436    1.59768153040750    2.62863458420440
C         4.10297496707394    2.22352295297580    3.40901277417348
C         6.64109450608327    2.69456506810651    6.37866846216355
H         6.98688084937542    2.60756229980882    7.41540015419925
H         7.50090445968347    2.95340524182493    5.75798366714946
C         6.04702235933088    1.39225659306199    5.91974298998517
C         6.82509935231952    0.39629207430833    5.30826977206663
H         7.89461635151510    0.55562307778030    5.21796323952450
C         6.27489816239790   -0.84185882115918    4.94964162040714
H         6.90607280341943   -1.63868684707331    4.57815198351604
C         4.89606236582707   -1.03700227498257    5.10592617030236
H         4.45510724701346   -1.99562316140621    4.85710748837803
C         4.09764667426213   -0.05116379465657    5.69857622255445
H         3.05255700150675   -0.24998135334514    5.90592883160434
C         4.67114015123828    1.15807511352380    6.15545407722362
N         3.91957922156589    2.05132761735384    6.86284632950956
H         2.92055028594158    1.92738270718701    6.81332115807739
C         4.38663347419013    3.39202041487489    7.16467885106263
H         4.68420661080022    3.43202956152412    8.22213579151389
H         3.56436649659359    4.09637586954373    7.01958073791091

