36
CSD_code = IMOZIU | q = 0 | S = 0 | Stoichiometry = C15H15Cl3FNPt | MND = 6
Pt        0.57825299553777    4.48840939664703    6.12098157848722
N         0.91395407962526    6.06006461565907    4.81883826961955
Cl        0.11656094494093    2.69611908335303    7.46514319707346
Cl       -1.56515748782097    5.39159785479704    6.51143772362234
C         0.66028094667361    6.03796394797966    3.51003729895470
Cl        2.76892646698846    3.68975755018282    5.75517487947617
C         0.84295546566885    7.20007233646136    2.76163815900594
H         0.64974071404800    7.19923264349383    1.70364767213391
C         1.27446868707951    8.36217246041529    3.37471176042796
H         1.40791274623311    9.26367837241185    2.79665463792689
C         1.53584748501021    8.35388063452804    4.73059280248961
H         1.87506863327112    9.24431612220173    5.23124408329744
C         1.34780974883072    7.17297798556322    5.44144015059650
C         1.59292708762851    7.03236845854641    6.87379687260659
C         2.10206847045352    8.04106408259758    7.69546901033156
H         2.34588806409666    9.00715921498836    7.28384178089872
C         2.30334547656431    7.81597133839490    9.04198586402870
H         2.69559261597182    8.58677570136994    9.68596189763781
F         2.18956152312027    6.35874146554019   10.87939077101232
C         1.99402908618864    6.57410353072321    9.57237003098326
C         1.48770350491581    5.54366202325203    8.79057059614890
H         1.25802136649720    4.58921998361066    9.24035122620302
C         1.29691399795536    5.79262723375959    7.45279736252429
C         0.27562442123891    4.73923918842344    2.81424768915275
C        -0.58567531943411    5.01087052659952    1.57069960375705
H        -0.00816833344633    5.45738519949583    0.76621385566176
H        -1.42258087675524    5.66136185541859    1.81374248579861
H        -0.98419263898194    4.07121845422768    1.19654811720719
C         1.59557770042244    4.07352689190796    2.38874242480248
H         2.16426815739960    4.73102283887197    1.73467131662627
H         1.38547739429993    3.15126449696981    1.85280699851121
H         2.20783326986478    3.84020709303691    3.25786369959816
C        -0.52236315467719    3.77888224538433    3.70458014997051
H         0.06156876252761    3.42481441525063    4.58654843510839
H        -0.76558169109350    2.88233278172207    3.13656772457992
H        -1.45596031085073    4.23773797621694    4.03258987373765

