55
CSD_code = IMSANI | q = 0 | S = 0 | Stoichiometry = C22H28N2NiO2 | MND = 4
C         2.60402958462433   -3.62607302402424   -1.73972184974097
C        -1.35995992276538   -2.61536998081532   -3.05643209711365
C         5.79211606924176   -5.17628531913720   -3.13824991923161
C         3.47643117856115   -4.32936700130301   -2.61575240914073
C         4.85779697490884   -4.40428304796328   -2.25663370733358
C         5.30375874631660   -3.76938252690178   -1.12597433956995
C         4.44345711434806   -3.04747282744976   -0.29106898989650
C         3.11200888801944   -2.98666969069768   -0.59351923950072
C         1.20890314587753   -3.61148782932636   -1.98726627701135
C        -0.90105649766036   -4.06392698576933   -2.87854620290301
C        -1.43736186959842   -4.67895014831360   -1.58341928641835
H        -2.44511317471166   -2.57619123618115   -3.11019913713702
H        -1.03389173587373   -1.98681411517892   -2.23007509512536
H        -0.94826660007065   -2.21307103061031   -3.97963396141653
H         5.97174561662662   -4.63427906271457   -4.06732166799902
H         6.74625143864460   -5.33449380903549   -2.64169589790920
H         5.35471292977862   -6.14020552778955   -3.39099996954476
H         6.35290121277964   -3.82979057974301   -0.87069725470526
H         4.83443916170422   -2.55623273850657    0.58667520649469
H         2.42786548185006   -2.44874491202581    0.04816745163855
H         0.63432940341217   -3.09363358369521   -1.21804746424621
H        -1.29684114201561   -4.64753455667341   -3.71146353396303
H        -2.51870918457990   -4.77141777683959   -1.64952414214776
H        -1.01367483270204   -5.67074888898999   -1.44056963598751
H        -1.20451246137602   -4.07306160318331   -0.71052013949832
Ni        1.43294123974088   -4.98953400718816   -4.53917072864137
N         0.56311853671549   -4.16098030514365   -2.96398277447574
O         3.07114970397176   -4.89220184886083   -3.69699388654836
N         2.30277502787653   -5.81795970730811   -6.11441874941784
O        -0.20525488390842   -5.08679463168833   -5.38138023979450
C         1.65699520612476   -6.36743227582356   -7.09115062928386
C         3.76695191628537   -5.91506995145099   -6.19981332751516
C        -0.61054043648505   -5.64962716380653   -6.46262284683872
C         0.26186046320836   -6.35291303553490   -7.33865699546684
H         2.23155840912214   -6.88540972659595   -7.86028985262583
C         4.22584752635366   -7.36363795111982   -6.02196051299248
C         4.30325706958456   -5.30004121617317   -7.49493814295319
H         4.16274269765902   -5.33148346476175   -5.36688300401047
C        -1.99190919611928   -5.57472676785166   -6.82173057795771
C        -0.24612382815226   -6.99234766528868   -8.48483803838868
H         5.31100224936385   -7.40283486975034   -5.96816425147776
H         3.89979151504246   -7.99217519427310   -6.84833579240013
H         3.81412506116688   -7.76595515273909   -5.09877948291935
H         5.38460860408366   -5.20761209378172   -7.42883875179626
H         3.87960216304370   -4.30822238214794   -7.63775647144497
H         4.07038119107243   -5.90589853295020   -8.36785414207575
C        -2.92622296378231   -4.80270509645394   -5.94012828894894
C        -2.43787549706517   -6.20964789931730   -7.95237695632583
C        -1.57757368158137   -6.93155523684255   -8.78728287455152
H         0.43802166529615   -7.53026547292945   -9.12652832049430
H        -3.10580895755301   -5.34467006433786   -5.01102595210452
H        -3.88037324306437   -4.64454833353806   -6.43666499912941
H        -2.48884336190045   -3.83875904765756   -5.68743805694906
H        -3.48701166709107   -6.14922061281755   -8.20766839693996
H        -1.96855205434757   -7.42278248899691   -9.66503739612491

