75
CSD_code = IMUCUO | q = 0 | S = 0 | Stoichiometry = C28H42N4Ti | MND = 6
Ti        5.95741579677395    3.48884012977581   62.65907061835031
N         6.16183388990446    4.36624609129021   60.99259865895412
C         7.25114188611076    5.09392583592701   60.37727048008673
H         8.22144412808726    4.74205552324491   60.73280391188016
H         7.17688790442011    6.17753887813958   60.60849882524231
C         7.12869294526000    4.90740199919955   58.84109347242224
H         7.18750299098733    5.86762887600539   58.32794262248469
H         7.92266777655872    4.26739559540987   58.46281408746357
C         5.75916490334130    4.25112115051478   58.65261976300210
H         5.87046922648238    3.18563417421168   58.45813651007413
H         5.18186540161477    4.69836711521686   57.84401207424689
C         5.09552312060627    4.46104721875160   60.02958568608528
H         4.67387250265201    5.49571755292315   60.01461209849973
C         3.98933013951566    3.45453563162326   60.32815157138467
H         4.39379930778897    2.45537574987079   60.15361956641147
H         3.12852539029668    3.61002058550743   59.65251058628469
N         3.59250179175249    3.55513692462181   61.73074583223966
C         2.81811455222716    4.77521839612569   61.95708258429458
H         3.08549116168658    5.51490133811791   61.20088291853832
H         1.73619137659039    4.58495503320900   61.86454447065580
C         3.11941891407170    5.35582142416997   63.33846358719952
H         2.65823564805170    4.71779385079321   64.09389421289437
H         2.66263157372225    6.35527334707832   63.42683059729158
N         4.56246979747581    5.40954189282125   63.57106721816900
C         4.86403628433846    5.14755870691698   64.97640566606162
H         4.24703412431671    5.77441560671982   65.64582466929068
H         5.91652379771711    5.37920453456797   65.15290290166263
C         4.65722503595309    3.66805588674252   65.28350835606867
H         3.56531103516364    3.43134133866633   65.29499212198279
C         5.19971176138282    3.24801035101237   66.66488022597574
H         6.14566388907060    3.75231197838758   66.85546507354002
H         4.50542718706362    3.48369496425954   67.47084379285241
C         5.42104243591136    1.74452426406186   66.48882642026753
H         6.38484767905894    1.44164018932493   66.89156752197553
H         4.64313874948340    1.16523742247125   66.98689968106048
C         5.36806407472922    1.53111931757272   64.95221501386615
H         6.22426126323917    0.94378355459719   64.61532636894256
H         4.44745622020224    0.96223698255166   64.70569744631108
N         5.34301902025842    2.83713867044608   64.32830730032192
C         2.83153654694958    2.38465040881060   62.14397722456528
H         1.91183903360653    2.26577132836768   61.54629174062325
H         2.55313368289192    2.47650448013107   63.19341916806667
H         3.44389012286625    1.48975036013998   62.02875915099344
C         5.09842168082078    6.69716665554440   63.15329091620560
H         4.67438906032543    7.52566852265362   63.74578082851432
H         4.86822011019715    6.86998140361254   62.10246570535684
H         6.18250040602885    6.69893035041816   63.27162694860141
C         7.90497655856598    4.15022417401953   63.32502861063056
H         8.57927447947568    3.57505680279798   62.67839935572412
H         7.99834888704414    5.21812801982037   63.08156851758189
C         8.25741595643562    3.92149859901731   64.72447104889976
C         8.29082527762173    4.96737450979991   65.65861809278559
H         8.08077100062758    5.97997334362715   65.32967701344697
C         8.61808613175700    4.74665952744104   66.98305418981620
H         8.63052256594667    5.57543439749788   67.67844323750134
C         8.94363872490359    3.47365604458294   67.42095210640861
H         9.19971656975489    3.29957230993756   68.45568361704896
C         8.95870397181949    2.43000512345417   66.50644945490458
H         9.24193479492483    1.43807083905558   66.83271721658269
C         8.62997345229430    2.65013935639158   65.18562583830480
H         8.66748036228135    1.82871278277896   64.48031044663377
C         6.50039179465141    1.50330344577860   61.99827929203017
H         7.36746529999681    1.27921252806299   62.63166355527524
H         5.67802549738949    0.82402587858974   62.26354377334717
C         6.86381544144017    1.32699101364661   60.59403157480487
C         8.11294525507495    1.73777016176931   60.10581129437009
H         8.82057856302082    2.18566342956742   60.79306276129316
C         8.45861930347351    1.57411612008269   58.78092358354871
H         9.43043496337012    1.89948497791209   58.43389125940790
C         7.57543654260956    0.98236859219056   57.88899547807441
H         7.84603085499851    0.85624576520765   56.85101582739965
C         6.34967771375481    0.53460942359360   58.35347033766138
H         5.66242756797423    0.04624557776878   57.67539336971702
C         6.00514178028843    0.69494801241015   59.68211466692188
H         5.05805536095245    0.29721765060525   60.03227828261289

