61
CSD_code = IMUDOJ | q = 0 | S = 0 | Stoichiometry = C26H27Cl4PRuSi2 | MND = 9
Ru       15.54347397562226    9.79576067817236   11.56856557858435
Cl       16.12465573240712    6.37267880899019   10.49134017859726
Cl       14.18021087215132    8.12226265706607    8.57019505728237
Cl       19.27942437279579   11.05067583340276   10.77578282123670
Cl       18.28672097250913   10.86971286443035   13.80781550999588
P        15.32591117361518   11.60310517985875   10.12517133718622
Si       15.92824105294801    8.33124245292690    9.72296914649994
Si       17.90690371852466    9.95710747233306   11.92443590109024
C        13.88764212046359   10.68364875140285   12.89139539941131
H        13.41851911937432   11.66383775694625   12.89007142342803
C        14.97142283565624   10.42969911633495   13.74305098096952
H        15.35470967231645   11.20221535072177   14.39845636225246
C        15.50553834985696    9.12707613856118   13.81453115638280
H        16.29673796945503    8.91788515739017   14.52558503820548
C        14.95993463351170    8.09106372429856   13.04689665036203
H        15.32732506753769    7.07674052331396   13.15344718982211
C        13.83690381069999    8.34633880862216   12.22473358235338
H        13.35418184320517    7.52398937852544   11.70933876828865
C        13.28644301667308    9.62779091971312   12.16819893111043
H        12.36551455871494    9.80312487201763   11.62604199262314
C        17.29421111975860    8.32297553663386    8.35800152379878
H        17.57106365465962    7.30454534249646    8.10067290996724
H        18.18465712422103    8.84198862847203    8.69515259045037
H        16.94644436855745    8.81535659727854    7.45613575369494
C        18.84866186263054    8.28449999158596   12.13756973389719
H        19.83233965748635    8.44172176197256   12.57301571505071
H        18.97987194662525    7.79341076408835   11.17887609967029
H        18.30204499488529    7.60064730914338   12.78027798622761
C        16.13823230957705   13.17372969954884   10.58718247754353
C        16.57261437300487   13.36070524995814   11.89265983927779
H        16.45287472218705   12.56198470582147   12.61082398568197
C        17.17212339468633   14.54927692233788   12.26864491572669
H        17.52002868741599   14.67758615752822   13.28265869747141
C        17.33312677819616   15.56442825106057   11.34134249642757
H        17.80820194456386   16.49033927247359   11.62939882132257
C        16.88443048451714   15.39158486063932   10.04104097125898
H        17.00373578117821   16.18546517579956    9.31839558199544
C        16.28713651383759   14.20436884166389    9.66160141362526
H        15.93646552164107   14.07170677898568    8.64783362286461
C        13.57449022176936   12.12899149337128   10.01844136600445
C        13.14027156636360   13.37681947158073   10.45322485295293
H        13.84839207828196   14.08756181405841   10.85501948148680
C        11.79905489255204   13.71244245705587   10.37439053979977
H        11.47131697772189   14.68369361760168   10.71525734221962
C        10.88112938024552   12.81136074722793    9.86212725234708
H         9.83684398829441   13.07904253674616    9.79891895479867
C        11.30564888702988   11.56214939982994    9.43762123649064
H        10.59353018108418   10.85194510605373    9.04299978362660
C        12.64227138012303   11.21644647199434    9.52346248939779
H        12.97084424325708   10.23242559447711    9.21364159626408
C        15.80419074155474   11.51428077428462    8.36053043218251
C        17.17134791282082   11.57522713577988    8.09383220867290
H        17.86513067459669   11.67226580306905    8.91509913251301
C        17.63395435880105   11.51621227578408    6.79342733015552
H        18.69489081107277   11.56827320654213    6.60112008373590
C        16.73901979063626   11.38362324580577    5.74313157077794
H        17.09866956093836   11.33003209535588    4.72626367037017
C        15.38098508250346   11.32298440620620    6.00276772909565
H        14.67818053569472   11.22346540842982    5.18873200227618
C        14.91035580982780   11.39223543525423    7.30353909148808
H        13.84690081716057   11.35914321098043    7.47954371171188

