103
CSD_code = IMUDAX | q = 0 | S = 0 | Stoichiometry = C36H64FeP2 | MND = 8
Fe        1.65481539764664    2.54625844571603    4.53484900744757
H         2.00574360177673    3.81292858146238    3.94234993635246
P         2.59928955756626    1.69903182838864    2.78523974024755
P         3.62084544239148    2.66625323236465    5.44792979208611
C         0.24376277710418    1.27616540859840    5.66975500268684
C        -0.25785724999864    1.52043512748556    4.36378104544888
C        -0.39602651002545    2.92771368326759    4.19018176702795
C        -0.00415398093447    3.55649423661559    5.41196083553957
C         0.40466902771252    2.54134645596037    6.31647284525053
C         0.15662954354557   -0.05460399484658    6.35653244061099
H         0.66545426840877   -0.84367359273313    5.80500233438174
H         0.56897823989806   -0.01494714838676    7.36135216797531
H        -0.89452977218384   -0.34159713698143    6.44175338094325
C        -0.82844557554074    0.46102875216415    3.47627006595803
H        -0.74228856848613    0.72068767063861    2.42462825904672
H        -0.33576329876162   -0.49305457589425    3.64472072476590
H        -1.88976282508853    0.33559327885405    3.70580273508407
C        -1.13828940237897    3.63522980582703    3.10160547358090
H        -0.62132536648673    4.54706932150591    2.81095400316306
H        -1.25878526699825    3.00591151947075    2.22424612876085
H        -2.13358219217803    3.91296535135401    3.45693101949734
C        -0.26076225422102    4.99864436065526    5.71811451622430
H         0.16309578109551    5.28748293679111    6.67578037071386
H         0.15509884178559    5.63853426024640    4.94305010004280
H        -1.33833287954641    5.17368365730706    5.75608192464196
C         0.64739660303257    2.72949943152621    7.78096141776290
H         1.30698990628684    1.96143785516558    8.17628396109995
H         1.08641025844997    3.70181792039543    7.98672825368229
H        -0.30324127013528    2.66653907608348    8.31642642379690
C         4.92169266899762    1.96594035799645    4.31307688901596
H         5.86884366370313    2.50008881615055    4.43825167295314
H         5.07694516164224    0.92732408117623    4.61251465528414
C         4.43285314620670    2.01830783568904    2.87447917394893
H         4.97928560081111    1.31600061287594    2.23884695180315
H         4.57842126335755    3.02225420574971    2.47182876385335
C         2.32892886271189    2.39537614876691    1.06383290532115
H         3.20232269439886    2.11588687548959    0.45747283469348
C         1.06027154026807    1.86554312883273    0.40063882763761
H         1.09153115152842    0.77877676318191    0.30720769139090
H         0.20984008012027    2.13097235954234    1.02898720998766
C         0.86851219178802    2.47845035818523   -0.98497596689719
H         1.70838310114015    2.19614172908954   -1.62549439402211
H        -0.04372568710057    2.08397058618408   -1.43964602798657
C         0.79213434841679    3.99777311739379   -0.89256086798264
H         0.67165416554528    4.42873700439754   -1.88914440548512
H        -0.07793931165483    4.28085104136101   -0.29611257051696
C         2.05407501822974    4.54058966150725   -0.23238908543153
H         2.91875997080855    4.30982146636462   -0.86063532108124
H         1.99000449775441    5.62694886705903   -0.13998742118912
C         2.24647831455301    3.91725088457691    1.14616378368031
H         1.41377482878735    4.17752526404769    1.79980475410730
H         3.14926758631895    4.32013937994733    1.60694424101831
C         2.52758932699779   -0.14145697781726    2.43206661260104
H         1.46950105697320   -0.32124822735403    2.20899178300495
C         2.85973855233115   -0.89513209219333    3.71426671772371
H         3.92752909948461   -0.80504556828256    3.92192361367749
H         2.31966491472783   -0.43647375396141    4.54388804367207
C         2.51262022125847   -2.37275336638506    3.56865923655121
H         2.75190872130139   -2.91011774524462    4.48965998468248
H         1.44042205953520   -2.48299782303684    3.38656444540882
C         3.28868808262099   -2.97382370943641    2.39926085864151
H         4.35800270371191   -2.93801619002814    2.62208092939961
H         3.01194599574121   -4.02183468957003    2.26440855396893
C         3.01714771688420   -2.19676741435103    1.11349967104520
H         3.60745523872135   -2.61835820442525    0.29632521130078
H         1.96182775419217   -2.29642398049369    0.84696394055076
C         3.35745176228094   -0.71529882841609    1.28602930552365
H         3.16399624485286   -0.18829057799840    0.35113381832373
H         4.42233946488442   -0.62563930524928    1.50958892966253
C         4.29680280771451    4.39022548461359    5.74090423309544
H         5.25452783605657    4.32496548753212    6.27048734241574
C         4.50435258035981    5.14626905704150    4.43325206196217
H         5.29139584543887    4.67334162270504    3.84240108725529
H         3.57139096927488    5.09684145362162    3.86846459248442
C         4.88065873284690    6.60435362147344    4.68182293845097
H         5.83448692151286    6.65092117608854    5.21534819440004
H         5.00892050800722    7.11618795034508    3.72504786059168
C         3.80690547270828    7.30111491109436    5.50797820385104
H         4.07846502859727    8.34567962191212    5.67787722265707
H         2.86237610966444    7.27994805819023    4.96065671490629
C         3.63412412778928    6.57714417992985    6.83711280434824
H         4.56781450367587    6.63219436029556    7.40419413442493
H         2.85498281690701    7.06182623198381    7.43074487839273
C         3.26627327111585    5.11743431497170    6.59641436024225
H         2.31949564844937    5.05364814004330    6.05868634969504
H         3.15632389335789    4.60835307807083    7.55699895442949
C         4.13212779669171    1.85838588886309    7.06380092288784
H         3.57779222696166    2.41095591598949    7.83342287194703
C         3.63186352096731    0.41814085560962    7.06217601353953
H         2.59289079075049    0.40667909187363    6.73971076679651
H         4.20665903400535   -0.17096679615196    6.34511083568263
C         3.78648360552937   -0.21062861378074    8.44289221869663
H         3.19031054729235    0.34582146078439    9.17112072891790
H         3.42169221589699   -1.24051419042576    8.42982299167508
C         5.25301906678969   -0.18132296205069    8.86313432929741
H         5.36545399699199   -0.59673521799850    9.86706537055923
H         5.83592773073762   -0.80180989689002    8.17806182547569
C         5.78860671745843    1.24715792888297    8.82959693533464
H         5.25266851990776    1.85063107873284    9.56660088978775
H         6.84677975976062    1.25191162907019    9.10194946758244
C         5.61166540597688    1.87040785082421    7.44391482958355
H         6.18856510245255    1.29524610352202    6.71769326806962
H         6.00942027977975    2.88562328292298    7.46277217689851

