75
CSD_code = IMUHEE | q = 0 | S = 0 | Stoichiometry = C41H28ClN3OPd | MND = 4
Pd       14.43474015243174    9.66469755409403   27.05376716781283
Cl       13.60169426794595   11.46458052937323   25.96817595143544
O        12.56016608007675    8.89383778280521   27.30596299158842
N        16.67588993911032   10.31263905401700   25.46238559541483
N        16.81450507856552   11.56521995172645   27.23259927392940
N        15.20798256954165    7.95806837347921   27.85963762390671
C        16.12855097225526   10.55390763169339   26.67334556960497
C        17.80807878977313   11.98629098547744   26.37073481887913
C        17.71955629763402   11.17160895669792   25.22599825715639
C        18.59374924408685   11.31613828662632   24.16209128780871
H        18.52109033146251   10.68597833888287   23.28996795177247
C        19.55499270589238   12.30407841432665   24.26896119071077
H        20.25382361436894   12.45183283238750   23.46012010310189
C        19.64040326322736   13.11833442757025   25.39571750746800
H        20.40219933521454   13.88171571229840   25.43491907115932
C        18.77252199953055   12.97631596387161   26.46383627056093
H        18.84447491857802   13.61739673186684   27.32825001924652
C        16.12786288884801    9.26300683407107   24.68041374687472
C        15.40913214228742    9.53561361044364   23.50467451731262
H        15.34785444678000   10.55399674856394   23.15200189144856
C        14.77247959483456    8.51168760568817   22.85965091807522
H        14.20339024868033    8.70520089226434   21.96260334236803
C        14.81512725747948    7.19487938286648   23.36477467948197
C        14.13065082873078    6.13528492079160   22.73257676336994
H        13.55849353375209    6.34929187930602   21.84139615650042
C        14.18116197234543    4.86712950509348   23.23858988637602
H        13.64802638227719    4.06401763027678   22.75150166793344
C        14.92655622674354    4.59456483566244   24.39679062016978
H        14.95699144895335    3.58597941548239   24.78204129237938
C        15.60594403274497    5.59448264163393   25.03295557864985
H        16.18229610038973    5.39005749612390   25.92403163365366
C        15.56131137029258    6.91717720314120   24.54282755896569
C        16.23015502010139    7.98187080517902   25.19515398613678
C        17.10010689362159    7.75929375538452   26.38221874583426
C        18.49495255418354    7.61424187536139   26.18143839300863
C        19.07357948191961    7.64759266979589   24.89321255984243
H        18.42895605540757    7.76441340601908   24.03441590362125
C        20.42488599681044    7.52965425366314   24.72990404023356
H        20.85544019990914    7.55906292511597   23.73988049973726
C        21.26591571439802    7.36475743184044   25.84086854779586
H        22.33148767039714    7.27259449450280   25.69224281192074
C        20.73575072996047    7.31447528310401   27.09934871644223
H        21.37411919318076    7.17991117830746   27.96095624467882
C        19.34642453911967    7.43466969992798   27.30332504662862
C        18.77471152184585    7.38294678763679   28.59162358283400
H        19.42383260683205    7.23733227021819   29.44316714695383
C        17.42993036147176    7.51898033301353   28.76726726870878
H        16.99700379593395    7.50161271891994   29.75606087240200
C        16.57428683435420    7.73818795603285   27.66422691300704
C        14.53388533961844    7.15245378223709   28.62149306955813
H        15.07630721794383    6.31628918187031   29.07574315913825
C        13.14864045951111    7.18784962629425   28.89443989585887
C        12.23263596970528    8.05312982187037   28.19735831916616
C        10.84920610100969    7.91345732058780   28.52420629328431
H        10.16266285044611    8.55524784708350   27.99188394391993
C        10.41091089113343    7.03464972243547   29.46888435517160
H         9.35637372608245    6.97108402777514   29.69819905932740
C        11.31488704817233    6.20373743395095   30.14982067974465
H        10.95458115192406    5.50974045506905   30.89382212208162
C        12.64453946307389    6.27817225052560   29.85009495787475
H        13.35077241959966    5.63545933262800   30.35991459429220
C        16.49829935436881   12.19264823487276   28.50377111397035
H        17.44197778919643   12.47178228677216   28.98335208189499
H        15.91404339067921   13.09981188425025   28.30719492146500
C        15.71439654609066   11.25879830405252   29.39402969218846
C        14.31424400893419   11.24598233423476   29.34141891505080
H        13.78746157534988   11.97450473677227   28.72976599392116
C        13.59774043661973   10.37052332719774   30.15117350008475
H        12.51696091156732   10.37727287076229   30.12503772363459
C        14.26607809564523    9.50697131179838   31.00626806255780
H        13.70587094863390    8.82786422313758   31.63215090955925
C        15.64893781378950    9.52747768368911   31.06662322005498
H        16.16960517620620    8.87335035451724   31.75159712762566
C        16.37068919563267   10.39325602712790   30.25922599336440
H        17.45115491482505   10.39837564584480   30.30591811026152

