66
CSD_code = IMUKEG | q = 0 | S = 0 | Stoichiometry = C22H39ClOP2Pd | MND = 4
Pd        6.11536349735589    6.51140410640948   14.85233401665956
Cl        6.63211135549497    7.48895760529121   12.79267455757812
P         7.85480282395187    7.30664129337563   16.00486629672043
P         4.46403833901136    5.46424756314046   13.76634422270864
O         3.34612081060489    4.80274633582825   14.72411673795250
C         5.62717500608254    5.64001215083397   16.62687891515011
C         6.61927765965335    5.50724458184102   17.60867774765106
C         6.35978252116245    4.86456039309403   18.81226772417673
C         5.10778897207918    4.34309274307279   19.07459387554987
C         4.10308414566115    4.50648384129891   18.14113734266319
C         4.35100461015465    5.16022057999338   16.93966374433385
C         7.98977732005002    6.09249309563929   17.38273940647278
C         9.56308131283391    7.26228965146608   15.21768736905523
C         9.73938315353252    8.44143611265503   14.26303150118915
C         9.52567688346699    5.97010678608958   14.39038483356385
C        10.71255749941922    7.21478077670778   16.22338944325244
C         7.41066121204003    8.95397563237117   16.79785361082547
C         6.96348784714612    9.87678868117487   15.66030522233895
C         8.51623951677433    9.58918023248649   17.63319613666077
C         6.18047657469590    8.67635596796655   17.66827299586461
C         3.17974174084196    5.39417159654595   16.01386325063013
C         5.09992137028527    3.92941863071974   12.95434014848904
C         6.11815967220872    3.35922993155669   13.94333851374516
C         5.75652474234462    4.23120074644443   11.61367250296155
C         3.46249853519289    6.40182238784906   12.51468305078170
C         3.00929295597733    7.69344190309934   13.19537141906587
C         2.29042232023285    5.58745707337009   11.98767311872649
H         7.14675362762885    4.77625501849614   19.54963159954482
H         4.91168136348622    3.83198854785987   20.00531531883141
H         3.10943001150771    4.13465652543566   18.34957362525343
H         8.67101628823013    5.29569914914020   17.06520367705097
H         8.39694418758731    6.53568382624718   18.29675482099319
H        10.62320737123894    8.28545996101799   13.64527758202619
H         8.87601862515192    8.52106271157982   13.60341950747115
H         9.87132770664991    9.37623916762248   14.80345680282972
H         9.39461447841213    5.08938871148085   15.02155105156755
H         8.70101889474094    6.01737322048446   13.67144653114489
H        10.45354043973629    5.84976541746540   13.83322847780570
H        10.65243539630525    6.34022369702156   16.86690321304890
H        11.65617307795730    7.16356958671605   15.68072293878869
H        10.73482309716641    8.10268302376996   16.84901905569607
H         6.46903534885210   10.76057260074798   16.06230248254942
H         7.79781439322889   10.20342513249854   15.04657361907755
H         6.25133875247704    9.34514631619668   15.01502843071646
H         8.87958690696941    8.89997440795172   18.39388463508324
H         9.35206546931175    9.90053168465101   17.01133159098863
H         8.12982347079594   10.47365292613618   18.13909034159579
H         5.78853903510153    9.61291273065786   18.06393222134614
H         5.39558554660818    8.20380357039216   17.06366097557318
H         6.41003288800636    8.02254079171610   18.50718863882245
H         3.01611549081894    6.47689979646317   15.91264957910348
H         2.27255124359052    4.94268702597771   16.42552728464563
H         4.26231031927682    3.23135039847089   12.83676288645126
H         5.64079759823707    3.14318333581817   14.90098273503406
H         6.56510497338694    2.44186349215318   13.56245084280414
H         6.91965728140523    4.09814087752661   14.10937345407814
H         6.28833014489537    3.35349862509268   11.24832544144390
H         5.02135950458996    4.51944568952119   10.86569002871198
H         6.47136416490416    5.04703831364317   11.72364963907159
H         4.14935512878438    6.65831409727917   11.70296962204039
H         3.86046520472222    8.16555408938324   13.70288419452118
H         2.61411397622128    8.39946421341507   12.46700143706312
H         2.23024564627108    7.48852507614659   13.93008470742532
H         1.65967750986049    5.25673066166609   12.81123215563781
H         1.68719399582920    6.19205185472675   11.31188488132778
H         2.63489904182442    4.70858332703230   11.44707626809730

