105
CSD_code = IMULUZ | q = 0 | S = 0 | Stoichiometry = C40H58NO3PPdS | MND = 4
Pd        4.21913954309624    4.01484881132682    4.08899053986372
P         3.89316640324408    5.78313216264546    2.73972466900046
S         2.71486420815658    5.63686268251343    5.77583570290498
O         4.16871606771041    5.65538908869856    5.53618338806520
O         2.41140867162082    6.11687300804213    7.09756259355041
O         2.09580271134483    4.36540153138582    5.42463205452338
N         4.57622587344872    2.64122866250554    5.62653481815564
C         2.74265748345521    7.05597969884500    3.39468763281851
C         1.60948789786524    5.37830148679050    1.07892790842252
H         1.23915360249625    6.38544692831309    1.30395110860547
C         6.22735393006787    7.17490449678188    3.66567759122920
H         6.27193099679727    6.33501321853881    4.37017948560662
C         0.75118171687316    8.82454656464382    4.20032210410636
H        -0.04951150679183    9.48562087144972    4.49749222816743
C         5.47130131770208    8.31092238273068    4.38209478439703
H         4.42245534020254    8.01546622965216    4.42460960828191
C         2.07257474809816    6.85849071533013    4.59802195393847
C         1.07746297764692    4.43557923461528    2.18207905582686
H         1.75510523823643    4.49627178313325    3.04955539392180
C         4.64437533618979    2.59397752958670    2.69298616595656
H         5.44913853520040    1.95625343114877    3.07326811396669
H         4.97206723183937    2.97666164880179    1.72514964637278
H         3.77961085112723    1.95318789718314    2.51199620644242
C         2.44726700393109    8.18946541890201    2.63562186124032
H         3.00418683717329    8.39524824111976    1.73610841210743
C         7.81289299333572    5.95937725288359    1.45318226706896
H         7.77685355092292    6.78131532780942    0.72813407413364
C         3.14783904812122    5.44993325032775    1.02725490975566
H         3.52099145919738    4.44669873762438    0.78515250137438
C         1.47512447348254    9.07982462023222    3.05121197598970
H         1.26760483663035    9.96327051927149    2.46459757605994
C         5.55678481670843    9.66055747329647    3.67076332641032
H         6.54581772395249   10.09927536410547    3.77967092057827
H         4.83477166843721   10.34823530302294    4.10621633145554
H         5.33104110490282    9.56754357151607    2.61109160816208
C         6.38943117542578    5.52703351917008    1.79445410473173
H         6.44023167177870    4.71679256770289    2.53525960036895
H         5.91400074360915    5.12177575517237    0.89895963307586
C         3.60133374936769    1.84413103818831    6.07340540673264
C         3.59489580908860    6.39803598305219   -0.09101949088148
H         3.23546326987856    7.40922180851777    0.09796381075648
H         4.68229630435429    6.43221671449127   -0.15539554222860
C         1.04544459552625    7.71276800794533    4.99032775729078
C         5.58011497658969    2.98617119508443    6.43525432534723
C         8.58827564734133    4.79862017536453    0.83659204446667
H         9.60861206931884    5.09855448243684    0.60925455173864
H         8.11550911166605    4.46515773519292   -0.08452340241403
H         8.62207474392632    3.95817151823905    1.52611174984992
C         8.47790779815665    6.46108288897627    2.72962869409284
H         9.49313500048912    6.80403147185284    2.51744590579909
H         8.54243863001089    5.64263682749541    3.44975367654327
C         2.54926656778912    1.41716151516887    5.10268683449182
H         2.20115391680467    2.29573486915853    4.55046240799361
H         1.71130416412230    0.95946531953103    5.62120284083134
H         2.97051380414855    0.69687966587325    4.40016727985928
C         0.22725220968054    7.44186284238783    6.18000815267410
C         5.52667411905085    6.64303532014158    2.40154990840929
H         5.38160900916163    7.45895017740527    1.68573349346663
C         3.59111264264349    1.38917464882141    7.38651125611671
H         2.78925780775072    0.75260934571273    7.72595946883545
C        -0.29906768116047    6.17033528513176    6.39082023316363
H        -0.04265727875940    5.37274699715698    5.71193774294595
C         1.06579038432250    4.99051884107419   -0.30231680154729
H         1.41610577203469    3.99281497444004   -0.56823389401071
H        -0.02442041535232    4.97019522453297   -0.26610482380018
C         5.92342417212880    8.44123083711410    5.83612923414446
H         5.67861887857243    7.52753910404629    6.37203301936016
H         5.39475186584490    9.26151348470879    6.31658543006625
H         6.99152922031381    8.63221062481093    5.91613641629522
C        -1.11687344079220    5.93017144622457    7.47760284006023
H        -1.51623444915247    4.93934695473826    7.63805491072688
C         4.60505270259088    1.76866933025744    8.24761393140884
H         4.60576477684482    1.44203333925431    9.27682185469860
C         5.62495917882490    2.56378427998264    7.75911155246213
H         6.44321981781551    2.86989260180036    8.39218046642096
C         6.66994691306078    3.84583198945443    5.87384216526349
H         6.74073996050861    3.69845374703816    4.78724459535340
H         7.62499249097077    3.62196833801478    6.34626268691040
H         6.41855239901343    4.89152639317934    6.07255643176994
C        -1.41989854743409    6.94974863876290    8.36538645623475
H        -2.05515202232797    6.75637264792148    9.21786074548400
C         7.65760664662959    7.60288881454191    3.31364180432690
H         7.62408525893824    8.41245358723476    2.58204181426329
H         8.15104968428051    7.98148822252288    4.20917174726492
C        -0.30477659173492    4.88729066858457    2.65155216562973
H        -0.27416324485188    5.90956858067932    3.02364631507334
H        -0.65165008221622    4.24525216448071    3.45726592445269
H        -1.02858286994743    4.83658466954993    1.83964560808292
C         1.52208370684294    5.95897363631562   -1.38516072387543
H         1.10551053344158    5.65846067152538   -2.34903840468970
H         1.16032938460109    6.96600271603797   -1.16423370975175
C         3.04548893974587    5.96912141725045   -1.45356860216787
H         3.39355464119361    4.95318421181142   -1.67212158125286
C        -0.08372394726371    8.46212598325282    7.07256077448289
H         0.34057433857202    9.44580656909891    6.92840545690068
C        -0.89705784869639    8.21473310191649    8.16324427493693
H        -1.11950192875471    9.01095230735462    8.85938785706092
C         1.02110751717040    2.96556800596757    1.76681428642993
H         0.24194879083294    2.79298391859955    1.02762587965762
H         0.79581589611250    2.35513198239602    2.63791562142312
H         1.97476495905401    2.64069676183867    1.36071544951302
C         3.54814296236442    6.90259477033586   -2.55166435755718
H         3.16367528406765    6.59194527737550   -3.52024095782152
H         4.63510423334312    6.89551041208102   -2.59661159445224
H         3.21851480823740    7.92279593171908   -2.36554322794999

