105
CSD_code = IMUMAG | q = 0 | S = 0 | Stoichiometry = C40H53F5NO3PPdS | MND = 4
Pd        3.98948134677994   26.13799757100534    8.52572659144976
S         2.43477030825320   27.68007354230816    6.70243156618682
P         3.61460357902746   28.04846069816635    9.69559695297136
N         3.95647137696188   24.39260422777734    7.37318823373830
F        -0.81803318082314   30.59170305140289    5.87231445198131
F         3.08275373300960   29.67060586164948    2.18837263286770
O         1.93836407861798   26.77948628016676    7.74835717185732
F         3.73121821187985   30.00758207765707    4.80807592726505
C         1.82451137722922   30.39251881370553    6.82477124053764
C         1.60427585951542   31.59312721380902    7.49481352912980
H         1.16652570506109   32.42739460241408    6.96824036608077
C         1.24117078901360   25.58983648734368   12.86847455369673
H         1.35824824851830   24.70849294650099   12.23434383203765
H         0.70862868669983   25.28508652976370   13.77211270641327
C         2.61624707510452   26.14112391930095   13.22667510323861
H         2.48780891111600   27.00378567269826   13.89130066329632
C         2.38024752805341   29.31304494458194    7.49568699184600
C         4.71334357883678   24.25258256682061    6.28039504974199
O         3.82838487476430   27.45042199401154    6.36287860656538
C         5.89633101268551   29.40714755357789    8.00120734219775
H         4.91139565829533   29.04486731755253    7.68282377147591
C         1.93973674550710   31.70121360625912    8.83119634462742
H         1.74962165065646   32.62268789139754    9.36104075662602
F        -1.47627331092044   30.27728401898765    3.25414943880707
C         5.11840862148932   28.93963952375162   10.42440402665454
H         5.83056862778132   28.11701628913380   10.56940162202662
C        -0.34746641892911   29.23186189201259   10.88409176987119
H         0.43451467618005   29.72450956386239   11.45692019680775
H        -1.11657501215235   28.88436059141569   11.56961532097607
H        -0.79518958549872   29.97229690956550   10.22464875430334
F         0.47456426411712   29.79308503675631    1.40969774321280
C         4.93900034412944   29.62584917122393   11.78436252012026
H         4.32362891667106   30.52080964613353   11.68849251446856
H         4.45950163099822   28.96259459160630   12.50285941867919
C         2.52365021187461   30.63384274801577    9.48932855332883
H         2.76760681266801   30.72877730037241   10.53456454308039
C         3.29714092387827   26.59653248256861   11.93847908032168
H         3.38959054153113   25.73252330117191   11.26924087416706
H         4.30744879885689   26.93882747736541   12.16909126091359
C         4.43746839095002   23.26774339304891    5.33698043935132
H         5.06305173978512   23.17636274236411    4.46325424435498
C         2.51791861995606   27.67833376995427   11.17691448790309
H         2.41142715162877   28.58287331614363   11.78521450351426
O         1.54415214186207   27.73703803338906    5.56821970460361
C         0.20858444259929   28.07767954103380   10.05191871872006
H         0.80998711686541   28.49729763310819    9.24640393524066
C         2.91114462594961   23.58299143509845    7.56996655190606
C         2.12654100452949   29.88388544869719    3.09764565276593
C         6.84951979833442   28.22506448036385    7.85095044059226
H         7.84299483763148   28.45131099089797    8.23035457707426
H         6.93846917209856   27.98613564564942    6.79429951747124
H         6.44323760833820   27.35276789456033    8.36873408291196
C         1.12276129281936   27.11719293130283   10.83771149574896
H         1.28705835636691   26.24498110492827   10.19323998812291
C         6.11191395980854   30.68575349734598   13.73961047473076
H         5.47530111642040   31.56620670683713   13.67985780294194
H         7.07354596189754   30.98818269276382   14.14713548243893
H         5.65572954256775   29.97798392648514   14.42841096589421
C         5.86178645466511   25.18542839315985    6.09956696868229
H         6.60539197376671   25.03132952540829    6.88169709782723
H         5.48507684872823   26.21110340172472    6.17079996014140
H         6.33098386329393   25.03888216454575    5.13038693368769
C         5.46687439344289   25.29293440927917    9.66110592523681
H         5.10973764902898   24.34217988578481   10.06729235762456
H         5.80166159039113   25.89817530026227   10.50387818172176
H         6.34664622198809   25.06303929465914    9.05726482185432
C         5.76206426296247   29.93741633220856    9.44140002018416
H         5.11316757717565   30.82095887559529    9.39131857819867
C         2.75874719593595   29.42876884367971    8.82931639102591
C         1.46758765524527   30.26972076675385    5.39762919575710
C        -0.19782241324236   30.19558932213308    3.63768491557902
C         3.46928414968111   25.09783466532823   13.94241393658709
H         3.63036616603489   24.23494170633062   13.30025155471658
H         2.97761217233741   24.76181113387710   14.85230641044501
H         4.43977160777255   25.51016759726298   14.20917005840474
C         2.07680867273647   23.80533220800043    8.79098796421503
H         1.46243249892396   24.69578361547892    8.61819198039966
H         2.71728260730003   23.98532428965795    9.66191020021610
H         1.42392590781172   22.95639146682502    8.98132298726400
C         6.95062184675983   31.03430265600804   11.38924536367851
H         6.33526670925893   31.93339505877251   11.30543744044846
H         7.92839128484409   31.33561498993702   11.77116968447154
C         0.44120801275423   26.65617383782351   12.13306966327783
H         0.31414818582821   27.51227925588747   12.79825749334518
H        -0.54884857219044   26.26508082000840   11.89869999208858
C        -0.92749670022698   27.32201366325638    9.36302047014096
H        -1.55437516708855   26.78805960835395   10.07370588421011
H        -0.51257307614591   26.61612673021817    8.64801083330010
H        -1.55486302610809   28.02189640228995    8.81573162435518
C         2.44964184460013   30.04552639705394    4.43668898281749
C         6.29076219135159   30.05926416315521   12.35922676242406
H         6.93082145772976   29.17516728931656   12.45799953961324
C         6.28401522397665   30.52717526758311    7.03513869498109
H         6.13451526291095   30.19126022767202    6.01304403900254
H         7.32792880060905   30.80982116385259    7.15286981076922
H         5.66378227710946   31.40763429347941    7.19225468101095
C         7.11052707263827   30.38843381164971   10.01834970213347
H         7.77300433242901   29.52728676068073   10.11575782166322
H         7.57697270946217   31.10095890327649    9.33838607295888
C         0.14823953381966   30.36011681268224    4.97355999992249
C         3.36044798278563   22.42234929958373    5.52622427065221
H         3.12639280987423   21.65536390970413    4.80332513807143
C         2.58819444194284   22.58106439699522    6.66272937260452
H         1.73698259479245   21.94462451184672    6.84679168321890
C         0.79507083247087   29.95075547316943    2.69721344920833

