94
CSD_code = IMUTER | q = 0 | S = 0 | Stoichiometry = C43H44CuIN2P2S | MND = 4
Cu       -0.01048482113554    3.16350979340079    2.50622292214547
I        -1.02571424084226    3.24461788692460    0.20796582548183
P         1.42274922196727    1.62789144534606    3.27148159041393
P        -1.15491034231115    4.06296432547370    4.21975500806104
S         1.72177874246975    5.48105510464636    2.89069767393717
N         0.59725004622473    6.31990661149257    0.64929560261626
N         1.53498407197685    8.35687090499610    0.20527215617190
C         1.42050744454481    6.52153105657868    1.65497969623933
C         0.58331711154647    7.39123646824638   -0.33323462976009
C         2.07128798676144    7.88015102970537    1.48074032533457
C        -0.81693036890130    8.00713629140603   -0.40011824670578
C         0.99492700180580    6.83559484160018   -1.69805053919637
C         1.62195860456489    8.80856239879503    2.61493262321359
C         3.59378535934381    7.75011210051912    1.46675924003817
C         2.68669212564473    0.92843502876425    2.16096845393440
C         3.70716445542276    0.10280871002679    2.62499342822619
C         4.62780696372663   -0.41514655617855    1.73413322975475
C         4.53841008381897   -0.11524027339872    0.38304963586937
C         3.52650719431790    0.70814389084906   -0.08093018988641
C         2.60368938196204    1.23246726654240    0.80641001122501
C         0.35983455271950    0.19745245371440    3.62221676625949
C         0.38600211766217   -0.97611845520960    2.87730343040235
C        -0.53879907920322   -1.97364088947973    3.13213810483363
C        -1.49676205283926   -1.80674669445157    4.11842558073753
C        -1.53878385081208   -0.63125720318361    4.85209384687419
C        -0.62130978408219    0.36889346300911    4.59875885258014
C         2.39639146974543    1.83566779018977    4.79792072641586
C         2.23694395627067    1.08451176298121    5.95533185832082
C         3.03520466667353    1.34252877636132    7.05572128964645
C         3.99205874435913    2.34183888599492    7.00863950922652
C         4.14923892521591    3.09719770185965    5.85694202687966
C         3.35085679883575    2.85043904700582    4.75834517635246
C        -2.85021450015319    3.39883438789554    4.31687549667364
C        -3.15388571554854    2.25014339434282    3.59626920741219
C        -4.43101116810902    1.71972068039158    3.63621450357039
C        -5.41070109521705    2.33947670967643    4.39248095819096
C        -5.11571373963739    3.49286895322608    5.10455350086930
C        -3.84183084078219    4.02572899168035    5.06741574317472
C        -0.54922686245314    3.91319006111680    5.92966458828342
C        -1.22381066394704    3.20384860124196    6.91879735406226
C        -0.64994349045702    3.04501308461387    8.16737366301640
C         0.59347393217502    3.58978307633272    8.44059204234899
C         1.27596983021255    4.28375260975246    7.45466599623511
C         0.71772253667071    4.42927245037303    6.19981251617903
C        -1.54076229700185    5.83253991372967    4.03766974766909
C        -1.09702144947116    6.83750586978595    4.88706452415936
C        -1.41452935381873    8.15641710777308    4.61375897324009
C        -2.17353669377287    8.47967040534008    3.50126242698586
C        -2.61365999938959    7.47891182018800    2.64863402057052
C        -2.28867046564785    6.16249639927331    2.90809672884213
H        -2.19658217248199    2.77664280143340    6.71454901072822
H         3.45328224041408    3.44464846651336    3.85935902886395
H         0.04834597850742    5.47167343953465    0.51619972953077
H         2.27146112354973    8.56657433272944   -0.45591868765779
H         1.00955336391870    7.63355605080132   -2.43549220929416
H         1.98461914223225    6.38555783778661   -1.63950426919327
H         0.28787435566991    6.07341454661948   -2.01529221182642
H        -0.82528464313747    8.81456612742475   -1.12554075187256
H        -1.08397094927700    8.40743801936378    0.57354051737327
H        -1.54151212200951    7.25192680084123   -0.69177138407543
H         3.45493612873920    0.94306253665620   -1.13255951163893
H         4.89095660673590    3.88176189766359    5.81876337459330
H         1.50006598982758    0.29463119185690    5.99919509576592
H         2.91071564150962    0.75456256043688    7.95379802084066
H         4.61409382815561    2.53378861332868    7.87087255765875
H        -0.65729667031541    1.29836841742404    5.15653815169789
H        -2.29374109415701   -0.48960813464112    5.61218012799516
H         1.12432304219248   -1.10577635093591    2.09850211119804
H         3.77386257556445   -0.13127150465272    3.67890008631447
H         1.81187141484773    1.87774142801779    0.45186850578962
H        -0.51442750410736   -2.88459446515241    2.55217658599144
H        -0.51019467758761    6.59371527700636    5.76119476588694
H        -1.06785893745599    8.93675171439057    5.27618008268995
H        -2.42131784879732    9.51160092879885    3.29784308873744
H        -3.21107656649457    7.72458901402379    1.78286870412124
H        -2.62102845833204    5.37755909162074    2.24031946457816
H        -2.21715545289905   -2.58812851009493    4.31007544787712
H        -1.17890493186733    2.49301823798873    8.93120358569784
H         1.03394079357134    3.46697453370552    9.41907519850250
H         2.25017841741860    4.70188732461363    7.66031242776143
H         1.26335674252107    4.93814100533716    5.41664710364702
H        -2.38730622745288    1.77342482893423    2.99888693698634
H        -4.65946268967197    0.82788013131323    3.07184046265047
H        -6.40929481477864    1.92903536913532    4.42393808284094
H        -5.88410881489554    3.97849305734105    5.68878764118308
H        -3.60746053973047    4.92783343232117    5.61738270938034
H         5.26111225786290   -0.52489451920482   -0.30739118469786
H         5.41869089664675   -1.05774162997439    2.09363219050736
H         4.05126578737220    8.72928087103474    1.34466537478145
H         3.93244988097984    7.31447075180154    2.40352698151440
H         3.91437602773493    7.10199477876171    0.65185273071149
H         2.06702929928083    9.79069785609015    2.48257592952106
H         1.92838428960074    8.39683644792782    3.57314014220792
H         0.53953883960112    8.90846591270680    2.60581527696209

