94
CSD_code = IMUTAN | q = 0 | S = 0 | Stoichiometry = C43H44BrCuN2P2S | MND = 4
Cu        3.36743372853674    4.71099928860976    4.66637360205706
Br        2.68208853665817    5.98110850383990    2.85356965157713
S         1.86037150425212    2.38573458996427    4.82918890028522
P         5.23656591619923    3.48450934016473    4.40146015718771
P         2.94112657311024    5.19781071559815    6.79568831747237
N         1.04325624812410    3.18594965365720    2.43710995563894
N         0.18042352494152    1.32298472714011    1.42092707335060
C         1.21541453695823    2.22790696267444    3.32145433495586
C         0.48121272299876    2.72824476375609    1.17465936955820
C         0.69328972716296    0.92843721418974    2.73397451565518
C         1.53566617364319    2.87039977676398    0.07299915594609
C        -0.75948559834425    3.55628548419166    0.84129836703785
C        -0.39093598224360    0.32783423566986    3.62684758386193
C         1.85690567480345   -0.05580498538946    2.56772485694960
C         5.95159273936956    2.30980061609324    5.59619945062944
C         5.10455453435224    1.31595027052565    6.08216675452224
C         5.57447502169973    0.38279670910381    6.98542619519478
C         6.88688881324563    0.44549712303259    7.42508001758030
C         7.72293706574366    1.44936099465409    6.96616683608811
C         7.26129308158760    2.38238602931761    6.05530199396251
C         6.57082587581055    4.70630619743715    4.19504786390209
C         6.44823801741135    5.88992969795683    4.91636067849818
C         7.41184602159146    6.87544963485658    4.81665649353166
C         8.50496908079240    6.68396131961772    3.98769723299891
C         8.63080663098574    5.50908664550290    3.26265373684496
C         7.66939589078852    4.52036259783859    3.36184322065916
C         5.31304818694511    2.56101651236340    2.83577736265376
C         5.10226563342452    3.30166432813104    1.67235344178704
C         5.06930005105697    2.67123292412821    0.44405547967627
C         5.22776680175037    1.29570457461458    0.36681471739922
C         5.41657107215705    0.55521532859495    1.52209407328319
C         5.45661976342068    1.18080501300376    2.75609180948008
C         1.18544004378365    5.26357789463920    7.27895345133181
C         0.24188437252655    5.33096928459417    6.26079881694296
C        -1.10437235016599    5.41530737105054    6.56653859451360
C        -1.51044189897702    5.43710862037686    7.88965413749700
C        -0.57048657329900    5.37985581307681    8.90766439757168
C         0.77562109528064    5.29661789674514    8.60818923619530
C         3.67764966645670    4.03874016439717    7.97922960939140
C         2.96478311625730    2.93105961540068    8.42832703503079
C         3.57921979135512    2.00093808204682    9.24548741451495
C         4.90828837000480    2.15596861923221    9.60380782473464
C         5.63431075573020    3.23343388846345    9.12276126215561
C         5.02759217547781    4.16480246676243    8.30313892945823
C         3.47578999098583    6.83608295282864    7.39944975047206
C         3.83459694264016    7.10629945653729    8.71526339909935
C         4.19849892889111    8.39015869160133    9.07716831344785
C         4.20337844241311    9.40874209687637    8.13719390643292
C         3.84064017820682    9.14522915285100    6.82683127656352
C         3.47865649002304    7.86281497076330    6.45893508401254
H         1.40892902586445    4.13596598143675    2.52721022183331
H        -0.81060556277137    1.13472670129895    1.33937034081108
H         1.12096464055384    2.54180952638325   -0.87472638395013
H         2.39980914253443    2.25594623848312    0.30933630912230
H         1.84840681632646    3.90808934040869   -0.00554918745897
H        -1.20317491629431    3.20339105727845   -0.08561596658310
H        -1.49360341507360    3.47704322488809    1.64144388220869
H        -0.48144658943456    4.60046301781595    0.72658504167860
H        -0.75805987114720   -0.60041405915238    3.19499166943203
H        -1.22181930149392    1.02346009430508    3.73857437274233
H         0.01825950938953    0.12385467486405    4.61308127544995
H         2.62241975276994    0.37356894224250    1.92629635938278
H         2.29511761715548   -0.27681420558986    3.53752163372264
H         1.49578021187399   -0.97479712895651    2.11477431438398
H         4.07553181212431    1.28621205588921    5.74905939737784
H         4.91569603582209   -0.39139220261540    7.35077091227395
H         7.25603567014631   -0.28353911004877    8.13156927557043
H         8.74379488299515    1.50500218745094    7.31657646945477
H         7.91952782202765    3.16303519242104    5.70011842400920
H         5.58085973000363    6.03683332958035    5.55266630140449
H         7.30477755737367    7.79277789167403    5.37721888856282
H         9.25765546724485    7.45353837998249    3.90099744884645
H         9.48292020116656    5.36394614631042    2.61445134031510
H         7.76474433836216    3.60526585397895    2.79330262666876
H         4.96413339337603    4.37313403303059    1.73482124947718
H         4.91228941781978    3.25195001631035   -0.45272874181671
H         5.19640844899060    0.80084923874544   -0.59282321479200
H         5.53229859650721   -0.51763083246680    1.46406213805758
H         5.60318993225245    0.59712952365872    3.65396578839328
H         0.56813822135007    5.31197588175911    5.22951748347781
H        -1.83536590621684    5.46555845633228    5.77290593148859
H        -2.56137916664794    5.50051349942148    8.13161103636346
H        -0.89024273455465    5.40107512917095    9.93971565906367
H         1.50868893146590    5.25163362205154    9.40174565037269
H         1.93306721638444    2.80288602673555    8.13130915477069
H         3.01899881516047    1.14897262254061    9.60272572281434
H         5.38317764260099    1.43136605392349   10.24870264304870
H         6.67704404443610    3.34424576828825    9.38281397964057
H         5.59767712678248    5.00136404460889    7.91811261073483
H         3.83897369723672    6.31483658266509    9.45187501924044
H         4.47935888823749    8.59785783559798   10.09984094404371
H         4.49036013183471   10.40854159810449    8.42840246525197
H         3.84171057149882    9.93558367745062    6.09101191773201
H         3.19607504752512    7.65165026585293    5.43533195584769

