44
CSD_code = IMUYAS | q = 0 | S = 0 | Stoichiometry = C18H19Br2N3OPd | MND = 4
Br        9.45080845979620    0.79796847503446   13.01538083386249
Br        9.65033555638109    4.15577194360201   13.63356352630408
C         7.50603588888016    4.37916170265747   11.30229425778898
C         6.68185085758564    6.18430160307702   10.29338923239430
H         6.70859825364818    7.14977900942568    9.83259048380893
C         5.64424745833842    5.35444390535567   10.54835245169558
H         4.59758095497159    5.45858863912975   10.34970307455914
C         5.45357597243837    3.09875138436248   11.65082793434989
H         4.38014759711707    3.26794841507799   11.54969846592778
H         5.69657936290607    2.94590045624574   12.72011591513467
C         5.88299214657441    1.86910489371654   10.88429566699593
C         4.96808696605144    1.08860507883685   10.19630085747646
H         3.92494976660273    1.36432455264338   10.18587347262527
C         5.40939823548528   -0.05048512893513    9.54066776914904
H         4.71535465217131   -0.67516053869964    9.00012028292946
C         6.75467215044775   -0.36950228210401    9.61039885686324
H         7.14529394196199   -1.25556196895181    9.13777462582338
C         7.60519474167570    0.46368991014289   10.31655352816152
H         8.65313067752648    0.22298182126963   10.42270421901377
C         9.14801067656351    6.13585365013099   10.71362908260063
H         9.70451661167258    5.71020491549643   11.55584305396012
C         9.12280205472536    7.66204153337001   10.90912568434641
H         8.44605124906554    7.90398354000333   11.73244704354778
H        10.13046976938957    7.98720787482295   11.19061510647771
C         9.82568385347993    5.72219722509504    9.39720996933595
H         9.26158410841270    6.12605462334311    8.55239688936023
H        10.83326511509950    6.14592532158656    9.38458550686033
C         9.91563436470422    4.22431759171059    9.26731426116975
C        10.67019747652244    3.47884775225287   10.17747921771882
H        11.22223677936949    3.97895519592357   10.96623596505125
C        10.82555470311889    2.10769804338832   10.00047059906358
H        11.45325732277469    1.54681906787735   10.68012570776778
C        10.22259674326741    1.47499463144862    8.92182336016847
H        10.37958104890304    0.41876505000300    8.75734044297763
C         9.43034455477563    2.20165045558955    8.04905938533044
H         8.94575316606371    1.70939646772832    7.21786200565844
C         9.27468396580462    3.56622674717560    8.22507211617543
H         8.67074605587798    4.13026483970844    7.52659170891749
N         7.81301797761961    5.57603928360885   10.77306194716269
N         6.17043874484664    4.25686628421451   11.17730051852937
N         7.18384296289305    1.56698068815259   10.92606732612457
O         8.65626972686682    8.38622268243614    9.79475713962564
H         9.34121011477948    8.40328172302842    9.11832777161125
Pd        8.49801721283480    2.78789294002227   12.05765273558923

