38
CSD_code = INABEG | q = 0 | S = 0 | Stoichiometry = C16H17Cl2CoS2 | MND = 7
Co        1.51218631760221   10.02773372441142    3.41794970507840
S         0.73800546238314    8.35386259564964    2.34190308782114
Cl       -0.89767265540612    5.79843274567750    1.46325575064261
S         0.21188300902255    9.64503715561143    5.06639633739739
Cl       -1.96125959966779    8.41684297677391    7.00197897223940
C        -1.19292743219244    6.52193629329910    2.99788928152571
C         1.86158171588554   11.81936099453131    2.46944821742278
C        -0.46173098671588    7.65408219035098    3.37286105437119
C         2.14627738414118   11.94950329073032    3.87118294183347
C        -2.14080229687462    5.98712357526855    3.84487846721661
H        -2.69625729723430    5.11404028830106    3.54337837833793
C         3.51193077548208   10.29932943255313    2.99843243217382
C        -1.66750090425432    7.69020850264707    5.46852351367827
C        -2.37860851374613    6.57285466553733    5.08409869831952
H        -3.11889007125050    6.15536910574770    5.74695964061070
C         2.73068968069820   10.81983074159166    1.93056423056005
C         3.15449709995615   11.00704364913901    4.20110653132786
C        -0.70208756937022    8.24510396858114    4.62173012055406
C         4.64165513332796    9.33426622598009    2.85510338386676
H         4.47108211404084    8.65846173428060    2.02109689035005
H         4.77799734822665    8.74619655821054    3.75944348488904
H         5.56420663519984    9.88670172646673    2.66620295698101
C         2.90157313859698   10.46696350818374    0.48878658976658
H         3.84471194091867   10.87559841009274    0.12350876136563
H         2.09259392514231   10.87120180299913   -0.11216897183939
H         2.92171200916913    9.38754606971075    0.35290521391789
C         1.59998453389731   12.99170555499533    4.79106037874621
H         1.47244905897241   12.59376997161010    5.79490186529097
H         0.63852284183520   13.35972047674920    4.44400595447667
H         2.29413601452113   13.83233327459473    4.84024674070760
C         0.96030068139926   12.70946492303494    1.67905972298734
H         0.14134574226643   13.08202544322269    2.28930333659115
H         0.54254569350245   12.18602851013004    0.82238781300271
H         1.53078006464374   13.56529925786684    1.31298028079375
C         3.85064431442858   10.89923306171427    5.51747158704490
H         4.66845067924093   11.62137445313373    5.55294639281799
H         4.26659275264660    9.90571836622850    5.66358868697951
H         3.16950125956484   11.11469477439210    6.33683157015301

