62
CSD_code = INAJIR | q = 0 | S = 0 | Stoichiometry = C29H26ClN2PPdS2 | MND = 4
Pd        2.09173134514864    2.30759155791023   -2.47354232511668
Cl        3.63755649835766    2.06017356527246   -4.15085720304901
N         2.76378247496313    0.74500186945480   -1.33820262012368
N         2.17625486894426    0.54207788996134   -0.13668494829647
S         0.49447052272247    1.17643274966410    1.77181277530340
S         0.56888102625616    2.60983406306210   -0.76738313264123
C         3.26685100463096   -2.07890893932033   -0.25358711470782
H         2.25791184648011   -1.74999945867934   -0.06220851857074
C         3.74124302827695   -3.24216418703556    0.32171451544864
H         3.10335829447519   -3.81254667099904    0.98168326948861
C         5.02930507641720   -3.67883484704670    0.05743410146331
H         5.39913541679408   -4.58347790693341    0.51666046339024
C         5.83766366722342   -2.95703506498315   -0.80778007115252
H         6.83752331640010   -3.30229892384870   -1.02626342058658
C         5.36463836859927   -1.80293702835601   -1.39831909070427
H         5.99208466674060   -1.24148715602056   -2.07514741674304
C         4.07799947051255   -1.33280568607177   -1.11238167561795
C         4.63575698290506    6.19587019257521   -2.98501075996839
H         5.48592589128043    6.11864203327378   -2.32372181301171
C         4.49328745344315    7.30304097854488   -3.80616106564567
H         5.23855543563802    8.08448086300628   -3.79051547208971
C         3.39018971346588    7.41937531510251   -4.63736557716994
H         3.27330285931066    8.29445739451804   -5.25986997086602
C         2.43332528425765    6.42123691738388   -4.66622250501505
H         1.55333869861841    6.52447243301353   -5.28618930133396
C         2.59633076367246    5.28860703173370   -3.87516526481302
C         3.68715972678076    5.19007482641488   -3.01467800960677
H         3.78460697523865    4.30804476673043   -2.36901924408179
C        -2.37564862647591    6.36392651198620   -2.71113600131576
H        -3.24886595845046    6.93375026809220   -2.42993654588070
C        -2.37891870539332    5.62890934066018   -3.88429579476000
H        -3.25391819533499    5.62573049923548   -4.51786012925160
C        -1.26517475221913    4.89167273187517   -4.24940569171425
H        -1.26962702128837    4.31259439768558   -5.16266846287702
C        -0.14064835960145    4.89718490524490   -3.43468401366514
C        -0.14236104884078    5.63206868211345   -2.25142435562781
H         0.73561344851921    5.60876403151274   -1.61621269685799
C        -1.25609710304152    6.36420178496754   -1.89237971947806
H        -1.25752105190414    6.93068783486385   -0.97310898960496
C         0.44048787134782    1.80952709498727   -7.73047846160972
H         0.21023055085418    1.26352833375468   -8.63330457285435
C         0.19816264643578    1.23069918793555   -6.49295774932486
H        -0.21616461769895    0.23519696888162   -6.43265342331490
C         0.50450147192546    1.92730785791470   -5.34112814053615
H         0.35060963820851    1.47585737479924   -4.35089941626374
C         0.99391846386499    3.07572476136726   -7.81179947222875
H         1.19825373613250    3.51404296499329   -8.77765916317011
C         1.29670256328283    3.78389286053152   -6.66003720717272
H         1.74855832960452    4.76211340847589   -6.72690470574375
C         1.04368291441144    3.21249353885137   -5.42208050550701
C         1.23134142093283    1.35348183566176    0.20255431249704
C         1.69244306505983    0.08461868462834    2.64117656223689
H         1.19345290683020   -0.13995638779578    3.58434679226853
H         1.81654273062582   -0.81863993337807    2.04975275799042
C         2.97867521114948    0.79620393565770    2.85442226501712
H         2.91129895457615    1.69787036116695    3.44883461005399
C         4.12881468391042    0.40570275352039    2.33702903454420
H         4.20474637563539   -0.47988331903126    1.72929411226330
H         5.03899540031238    0.95599211629836    2.50225110719045
C         3.64755593219789   -0.10432127944512   -1.75168607257354
H         4.15691626601790    0.16476972797067   -2.67378050448576
P         1.37257018082277    3.95266758584946   -3.79940836239646

