65
CSD_code = INALIU | q = 0 | S = 0 | Stoichiometry = C17H42BNOP2Ru | MND = 6
Ru        2.56749879788835   10.02674683488510    7.32003710599527
P         3.65531968070964    8.83741163096537    5.70256318470112
P         1.22177080205947   10.67657206734940    9.05953507135739
O         3.51345160294114   12.73877520289594    6.48692432504662
N         1.87506573830255    8.02313578544346    7.90500353778653
C         3.23216585812528    8.99197159250238    3.88998007402054
H         3.89584234817588    8.33118051930118    3.32027506749631
C         0.63113873540383    8.03350830890659    8.67274048232954
H         0.41227480903854    7.02938936838423    9.07466730261626
H        -0.18587424296361    8.31652816298840    7.99675669193252
C         0.74486659353546    9.04234129038960    9.81092250795074
H         1.55678481754608    8.73963291763314   10.47775971136974
H        -0.18246885932111    9.09424222860121   10.38457189182960
C        -0.44307691697733   11.39362786544969    8.59717522873630
H        -0.82403284872218   10.70414120767278    7.83139444979418
C         1.85229181206505    7.05802052145886    6.80618150788690
H         1.04719620124436    7.34702659063638    6.12130745090639
H         1.63614843064448    6.04417233368932    7.18510677045413
C         3.15644482641524   11.68851079287776    6.82049005677928
C        -0.18970047665587   12.74240996636110    7.92839643806625
H         0.15618165620542   13.47927602985786    8.65128067542001
H        -1.10034438655845   13.11988578242076    7.46631597002263
H         0.57274334268951   12.62793280642840    7.15541532200539
C         3.19290833516913    7.06960738754267    6.07668711664349
H         3.14864033845238    6.45765758329757    5.17254311859237
H         3.96877482863755    6.66391439670735    6.73436420159616
C         5.51765686527501    8.69874783860223    5.75426972991118
H         5.68234779395575    8.23681170444142    6.73748043656288
C         6.13790795203620    7.81558891934540    4.67663186502576
H         5.62463459058730    6.85868879086595    4.59776913028896
H         7.18023002388499    7.62050092892212    4.92479013729377
H         6.11542577387277    8.30799108972816    3.70653473752512
C         1.73044535576135   11.76836796480668   10.49811861773048
H         0.92444604730192   12.49937264147376   10.63764390674196
C         3.45097774023571   10.44503529154814    3.48171643974586
H         2.86694782990567   11.09407476664190    4.13638446496385
H         3.13269792800398   10.60754719733603    2.45284877943761
H         4.49698341800848   10.72912332544007    3.56468131335703
C         1.95092546175485   11.03200153626110   11.81419788897797
H         1.05061860822257   10.51627434970958   12.14327354769337
H         2.22962768248870   11.75002129883041   12.58480563593066
H         2.76382983697567   10.31567488600077   11.71919464273300
C        -1.47840653076272   11.51059192039936    9.71103975685427
H        -1.73790666909683   10.54025118396505   10.12884640538407
H        -2.38888439981555   11.95037101853849    9.30588402638051
H        -1.13225827693074   12.15186732191643   10.51851118582014
C         1.78316220075837    8.59572375131386    3.62909371670037
H         1.61846161114727    7.53092331012963    3.78232138567038
H         1.51487328552176    8.83155918870218    2.60037763172388
H         1.12638575708727    9.15949844852136    4.29036033985004
C         6.17346540853834   10.07579447785100    5.79816458164011
H         6.18991476506462   10.54603388301173    4.81725069159257
H         7.20109160477228    9.98842717249085    6.14704882842462
H         5.63090301625078   10.72346487171184    6.48834759959218
C         2.99413642999098   12.51886953702526   10.08311291029118
H         3.81318993246914   11.81721687247377    9.93440522954731
H         3.28257200548164   13.23517407022904   10.85143387325965
H         2.83081883335702   13.05761821595987    9.14956537919322
B         4.59786960100888    8.97526617283395    9.32803201489650
H         3.97266141333880    9.01299585417106   10.34205557754594
H         5.61807145668087    9.56859632909729    9.36253876066138
H         3.82584851320525    9.72039842980535    8.37151700337222
H         4.69775855790448    7.86266392824677    8.89131454480475
H         2.63293747176005    7.74853059769704    8.54281979452512
H         1.32711927985838   10.11142173927774    6.40612222701963

