67
CSD_code = INASIA | q = 0 | S = 0 | Stoichiometry = C26H37MoN3 | MND = 9
Mo       12.58760361676773    4.26283978128879    3.47546896922126
C        13.80864947800600    4.05289189381090    1.66036787890639
H        13.23491664497330    3.90535893879853    0.74413598527141
H        14.68446805734421    4.67068763269340    1.47600096522248
C        14.00064606831922    2.89627100071250    2.48890444814909
H        13.64796935998205    1.93827394142404    2.11931068617386
H        14.99430155763260    2.81722202645666    2.91914907135515
N        11.25815465312587    3.82179594157264    2.45469151268271
C        10.25968412349519    3.54565270394011    1.60773506411333
C         9.88869149104116    2.20289799832631    1.34445631294746
C         8.84632096023636    1.95364487690013    0.47003926548874
H         8.56230952319263    0.93319836042686    0.26187288299418
C         8.15551477899823    2.98568162033570   -0.13964241995151
H         7.33637905773024    2.76900868834273   -0.80915427543647
C         8.52051768571010    4.29762704374144    0.10658146172484
H         7.97832015428326    5.09557480696080   -0.37712670424450
C         9.56704295948185    4.59821715401325    0.95825620333798
C        10.65080192465264    1.06594041459476    1.98159846343183
H        11.33323907958728    1.48749751989150    2.72896468222022
C        11.48375321496827    0.34842420297703    0.91467799470203
H        10.83901942059589   -0.11552681070528    0.17099730316420
H        12.09345493457485   -0.42597791738122    1.37459376261971
H        12.13828372728297    1.05451373703559    0.40705057281379
C         9.72632326202619    0.07718220035519    2.69352443807093
H         9.09489479012507    0.59378610069569    3.41139096968936
H        10.32289690245758   -0.65368990235703    3.23361528168577
H         9.09064210255544   -0.45209447001658    1.98750493774964
C         9.97166653881701    6.02325308356112    1.24391317254730
H        11.01016489851920    5.99524616525800    1.60657637101891
C         9.08476023820440    6.59171397676909    2.35619515678302
H         8.04709926544877    6.62169009788034    2.03019825615162
H         9.39488546586280    7.60207158316528    2.61708272339103
H         9.14547013386590    5.96255529910960    3.24249221076389
C         9.92539387977507    6.91959593012075    0.00734426249945
H        10.46167696483595    6.45791184305016   -0.81847619505863
H        10.38904309448132    7.87946471647151    0.22717920004581
H         8.90160288012664    7.10868346348532   -0.30522329214458
N        12.29952701163728    2.68975860459519    4.83539902992160
C        13.14615850227768    1.82284279382160    5.47082011490364
C        12.43680414906790    1.02793061548190    6.33851046077112
H        12.84158060518060    0.26063215643709    6.97108940580024
C        11.09181748203284    1.42589207876607    6.24808624991658
H        10.25988280779046    1.02005166089846    6.79267513491702
C        11.04330322127805    2.45338176773535    5.33904917693451
C        14.63458870101914    1.82588787136076    5.33279537684581
H        15.06493867382687    1.39748681142327    6.23682461809673
H        15.01697522899063    2.84050833021225    5.21816411399486
H        14.96515377835735    1.21731158234580    4.49108490359459
C         9.81444201339893    3.22846674882477    4.98057708747047
H         9.03386668667682    2.98460523249409    5.69976303434874
H         9.44320583419099    2.97796007679598    3.98639145288640
H         9.98773588084787    4.30882863926836    5.01482445225120
N        14.04460144385962    5.23378099147761    4.90237132553592
C        12.83189172231513    5.33258797479671    5.51643201966510
C        12.00342689496628    6.23870604133311    4.82035834912369
H        11.04660264273263    6.62708483619273    5.14595979714654
C        12.76347433668986    6.69614464678991    3.71941476811082
H        12.50409081476135    7.50123058610668    3.04565349593996
C        14.01868586940151    6.05612386815579    3.81947259086607
C        12.62238331456658    4.80777726032876    6.90409170575044
H        13.18625427154305    3.89001605609375    7.05833046646405
H        11.56953034024096    4.61125170765096    7.09859371155779
H        12.97769577354156    5.55380920092206    7.61874120798895
C        15.29676633607151    6.47958480174523    3.15853745673718
H        15.73520025603429    7.28697639179517    3.75007536081261
H        15.12319540575415    6.85267466998420    2.15064012181276
H        16.01345711190913    5.66042035249120    3.13522542971855

