63
CSD_code = INAXIG | q = 0 | S = 0 | Stoichiometry = C30H26Cl2N3PRu | MND = 6
Ru       10.27947891094224    4.77812345365666   11.83823876822102
Cl        9.79567981348913    7.07097279136063   11.40822713718983
C        12.16967014779307    4.51806489707865    9.52092218560344
H        12.90972410374981    4.93237227177780   10.19583840991344
Cl       10.45593411292793    2.45151017448722   12.39235415364505
C        12.52603148840777    4.11953603936823    8.24871622873446
H        13.54808934345521    4.22407115181805    7.92174106977669
P        12.15372733278645    5.33810972616110   13.04464695086992
C        10.26210985458038    3.48495347440491    7.89025175029287
H         9.47703818046732    3.07935221462735    7.27227465428911
N         8.63737659635999    4.35994057470629   11.02301748374414
N        10.93136414906149    4.41742707417007   10.00394225806671
N         9.07826439361379    4.86859190319874   13.56887725697449
H         9.08102666497775    3.89687699405578   13.91011648668904
C        11.55419585330666    3.58294109052767    7.41152833498563
H        11.80014979030094    3.25455028067522    6.41391593240056
C         9.96703006089499    3.90959026928536    9.18289269449142
C         8.63348820224516    3.88394052427698    9.76881375481799
C         6.29954100299880    4.11948439196490   11.20269083214456
H         5.39376662745296    4.23243417497258   11.77740125754603
C         6.26667859457928    3.58815089269647    9.91326727006254
H         5.32758288877903    3.27399613262572    9.48523912144092
C         7.43525309471083    3.48031863025202    9.18159255482413
H         7.41836204560871    3.09055437508237    8.17688905058325
C         7.51675907749518    4.50539847805625   11.72849453843306
C         7.73268552973562    5.17749095182358   13.06211186197759
H         7.69390388717976    6.26197985224892   12.88906855743527
H         6.95090800988786    4.90137326222197   13.78330044139045
C         9.50914230731565    5.74447142969381   14.66375270837269
H         8.67915693887223    5.92161149161236   15.36384654095415
H         9.80807881058024    6.70638720165627   14.22342030317861
C        10.65536898322583    5.10788532880879   15.40971987382702
C        10.46715422163645    4.72115000993988   16.72915838128948
H         9.51353445911123    4.90565419255103   17.20506761836952
C        11.47775561791803    4.10578610156803   17.44796462441009
H        11.30866984295834    3.81317263614253   18.47340504505340
C        12.69627292354672    3.86154695470367   16.84198417135764
H        13.48952982360468    3.37552646892391   17.39016851818459
C        12.89979837388271    4.23909661597409   15.52657371506603
H        13.85200228766671    4.04140912217937   15.05749461896874
C        11.89513806966052    4.86720378209167   14.79836764347842
C        12.54302170479574    7.11203773420922   13.18959480144797
C        12.57508726242779    7.80664316631763   14.39176427748564
H        12.37744664303320    7.29289234936640   15.32273000299996
C        12.86165127542039    9.16151355089860   14.39735555475703
H        12.88338664580742    9.69933526859392   15.33443999591332
C        13.11422966605906    9.82680292962068   13.21030694824551
H        13.33053038683266   10.88510207441695   13.22013197589784
C        13.08229230316688    9.13676009273063   12.00838054254065
H        13.27007330229937    9.65669390461736   11.08058776344912
C        12.79564522627274    7.78629761017419   11.99740018501394
H        12.74542045323401    7.24275904665272   11.06275537073284
C        13.80665510934923    4.64252921664416   12.70421714198362
C        14.98727746290638    5.35842977970984   12.88022163815288
H        14.95401891646348    6.37445556886456   13.24749271444345
C        16.20300971817741    4.76600336685883   12.58612591123658
H        17.11761776470554    5.32448490172222   12.72399470399133
C        16.25072619793301    3.46285075540568   12.11813956888971
H        17.20311690970208    3.00719998637040   11.88910578969366
C        15.07739310321784    2.74573705230756   11.94347103241641
H        15.11238197865016    1.72885752525288   11.58136795291475
C        13.85938731356699    3.33294862333132   12.23095728232335
H        12.93630823821502    2.78465811250454   12.09736408642449

