43
CSD_code = INDRHB | q = 0 | S = 0 | Stoichiometry = C18H17F6ORh | MND = 7
Rh        2.50017338582470    1.61023896971071    1.14722921790062
O         1.64293137126237    0.09554889735105    2.17228243361055
C         2.12277630634690    0.00638452253387    3.42119319862086
C         1.21967277318130   -0.94763872814287    4.24657648001847
C         3.56410403920062   -0.60397275117081    3.37801770293135
F         1.46999142724471   -0.86852176923553    5.56777117383794
F         1.35818998058447   -2.23656120209577    3.92041474967602
F        -0.07298695385328   -0.67203293199252    4.07791633493061
F         4.25257980603877   -0.45687013802228    4.51896928744016
F         4.29379566280661    0.01105033798461    2.41446849217291
F         3.60774808387820   -1.89768312846296    3.06688055123119
C         2.24453512506886    1.42302767306806    4.09903750400901
C         2.97915279140199    2.30453558357205    3.09456001039578
C         2.07917502244928    3.22863962013958    2.54224955930617
C         0.78837623289418    3.07302431456909    3.20383113020020
C        -0.37852869560230    3.80989167540419    3.06495699459329
C        -1.42362829487889    3.56439326697561    3.93905690577137
C        -1.29644968376386    2.62068616549023    4.94714294535966
C        -0.13568206670311    1.87164100160103    5.08470653135756
C         0.89661885216103    2.08353481206550    4.19495091363363
C         4.74206142571964    3.93072332391933    0.37135586551105
C         3.97953097344508    2.69889502802682   -0.02383586564772
C         2.71838554669233    2.80067811180436   -0.61365050362273
C         1.93643173727053    1.65137459897292   -0.99287466780024
C         2.33875144587750    0.36086169015319   -0.71463740058609
C         1.42782634997672   -0.81032706459652   -0.89540032439397
H         2.75359056917019    1.33249456686211    5.06076125480614
H         4.04674966061969    2.46627530741672    3.20577174588963
H         2.36191070835567    4.17764553542266    2.10073555146059
H        -0.46285560656946    4.56560641000562    2.29802797947895
H        -2.34087511532552    4.12729784814115    3.84863270850959
H        -2.10960689884444    2.46761801501634    5.64026959236614
H        -0.04750592007566    1.15382206519595    5.88540706382754
H         5.33257251328288    3.75255833566960    1.26744288258335
H         4.08269666774351    4.77784458380847    0.54427615033530
H         5.43624259013170    4.19679703878129   -0.42777692812144
H         4.63547026522555    1.86212479418436   -0.27016788557681
H         2.26610980675490    3.78026619262448   -0.73911044923594
H         0.92770732678558    1.82653013155398   -1.35534078995690
H         3.39684109182999    0.09757273766264   -0.65390569503204
H         1.35814763952707   -1.36051799289667    0.04284477259106
H         0.42714171829258   -0.49427389777376   -1.18005441687282
H         1.82363033857000   -1.48828355130226   -1.65198275750833

