106
CSD_code = INEBUA | q = 0 | S = 0 | Stoichiometry = C42H58N5Ta | MND = 6
Ta       10.83742910076560   13.34056196095648   11.43260993884640
N         8.94130929054496   13.76012127581818   12.20647526437663
N        11.16075561981531   14.92143833708840   12.72111864190102
N         9.84383787691784   12.28297400315728    9.94106416447937
N        11.04760469659977   11.86477940299719    9.90266799513076
N        11.45833192526703   11.04815134246433    9.04089204485623
C         8.86803304193309   14.68887362162736   13.20633687172071
C        10.09610074918276   15.32560312430021   13.50069122246208
C        10.13595843778642   16.28025179505264   14.51795999903687
H        11.06658332033948   16.77629104412368   14.75084310244992
C         8.99165916291065   16.58727173426683   15.23235894167563
H         9.03921606219877   17.32085448395877   16.02335491267335
C         7.78795593762170   15.96478141873212   14.93594230883478
H         6.89771897865337   16.21449150360762   15.49385102897369
C         7.72034428725164   15.02468263040086   13.92577955612074
H         6.78497970367818   14.53830545927492   13.68806100397289
C        12.55549538085462   14.20603784430554   10.18177387882811
H        13.06463189335467   15.08074202767223   10.57911230419856
H        12.21652359133563   14.46957113289786    9.17601605236227
H        13.31904621626314   13.43313547843308   10.06221983800792
C        11.59835856317924   11.78074153176455   12.92752654588429
H        11.37624786536011   12.00535809982422   13.96859074409719
H        12.67502831642001   11.65439677215610   12.82610490511678
H        11.12927416616341   10.82791215407007   12.69501426972620
C         8.91044584320077   11.76429162496344    8.96977979717811
H         8.87550967452308   10.67155139772077    9.03658484857249
H         9.25362596893647   12.02076160037462    7.96133497531878
H         7.92435327817293   12.18092873642806    9.15027781936225
C        12.77773523751907   10.59076467361153    9.04651774193973
C        13.66135877587213   11.08615875850396    8.07760183198298
C        14.94229698845627   10.56799252189468    8.00271233549542
H        15.62130994769989   10.96120820495272    7.25879735091681
C        15.36959324232796    9.55474398577792    8.84957060831261
C        14.46709972045204    9.04660257125310    9.76974187789698
H        14.76767544039925    8.23593792640144   10.41931463894841
C        13.17508978469229    9.53889070824674    9.87830880347169
C        13.22515111091381   12.16696806877197    7.13336210302549
H        13.76623018750358   12.09209871444649    6.19275440661855
H        13.42311528657743   13.15052158546718    7.56027311138762
H        12.15715566824509   12.08953363444378    6.93826915092647
C        16.76892827925252    9.02259294775063    8.76948310972099
H        16.80306321227476    7.97654161284323    9.06581293144121
H        17.42191648645422    9.58413631410067    9.43891842227128
H        17.16179498530719    9.11622001722835    7.75962101863356
C        12.22976349781806    8.89149359140997   10.84857192820167
H        12.19754908701908    7.81697334206599   10.67164793994774
H        11.22174515266695    9.28330432265654   10.74051447076668
H        12.56296432715943    9.04966642424892   11.87330188615915
C         7.71941055999607   13.28973993516906   11.68706530087636
C         7.23252754152929   12.02470298584409   12.04604414371679
C         6.06242504073095   11.56037548503436   11.46142641090045
H         5.68086114982625   10.58662262579730   11.72959981247566
C         5.37392247815042   12.32754145466555   10.54194048704198
H         4.46944747250513   11.94968932789245   10.08828080433804
C         5.84008045333629   13.58750544957099   10.21333639918276
H         5.29033898928752   14.18393837903311    9.50133061748673
C         6.99878617503890   14.09277719962499   10.78479922598386
C         7.49745355016435   15.47018485479945   10.41143649579032
H         8.24317948284597   15.77899222727926   11.14890573825846
C         8.17273270175815   15.42959072195363    9.03688022189143
H         9.04956763817976   14.78114065679825    9.06169239353375
H         8.49040473775938   16.42883325970717    8.74709802574390
H         7.48303846989332   15.05585413121183    8.28215203364278
C         6.37739694628054   16.51126339101022   10.43550350192431
H         5.84403758146566   16.46957018114504   11.38226295690161
H         5.66671005526502   16.35462296884055    9.62785365022295
H         6.79823495844469   17.50813228180866   10.32411381765560
C         7.94896531999616   11.18403614653980   13.07631972737253
H         8.84346446887480   11.72687269013189   13.39927072856929
C         8.38192579924400    9.84247261879286   12.48120041440018
H         8.99183034072835   10.00220622325656   11.59388478394047
H         7.51940435594236    9.24428041406395   12.19685614635215
H         8.96299094710043    9.27682216815225   13.20695501101431
C         7.06231287101090   10.97118591505750   14.30566073571015
H         6.77900754281543   11.92938488736816   14.73507604474188
H         7.59955862073497   10.40126790791289   15.06075953190063
H         6.15655509606907   10.42813543014448   14.04593617518824
C        12.24264867596938   15.85047166267540   12.78582401154652
C        12.16539404500725   17.03703066764649   12.03200354771190
C        13.19772214911410   17.95915105868411   12.11973851041908
H        13.14068447086426   18.87773668714188   11.55633353354091
C        14.29970973413948   17.72732876134944   12.92061180062975
H        15.09482222098018   18.45636693484292   12.97475268976060
C        14.37267055197889   16.56164013573571   13.65499283969577
H        15.23124215541277   16.38400615306413   14.28481431346111
C        13.34994867097584   15.62309317859311   13.61120604256262
C        13.43996251369095   14.38193610807457   14.46490730169825
H        12.52242863741908   13.80928490522631   14.31640667533598
C        14.62952602477199   13.52436613272357   14.02790804286698
H        14.56048790606350   13.30306792255119   12.96448917469624
H        14.64493866236215   12.58823942952789   14.58222861049686
H        15.56789990032916   14.04319296174761   14.20932328439606
C        13.53548087618426   14.73504522624568   15.95083195354343
H        12.67369036268776   15.32527912929570   16.25394811368488
H        14.43630332556047   15.30487307398330   16.16497873719808
H        13.55639864082191   13.82618701461077   16.54869149294221
C        10.98628902578659   17.32316006844821   11.12862667579332
H        10.41173984276794   16.39740600088481   11.01243707748114
C        11.43133617340583   17.76899600598021    9.73337159434852
H        12.14832644617145   17.06645403433787    9.31742689201089
H        11.88843005837422   18.75488467458091    9.75838357661497
H        10.57071704560148   17.81770117107053    9.06959547168734
C        10.07708147439801   18.38495865092621   11.75377425581726
H         9.69478839010202   18.04507282779307   12.71304113617243
H         9.23323033216479   18.58949352645071   11.09805304734932
H        10.62523497407750   19.31182251265007   11.90911961554911

