120
CSD_code = INEBEK | q = 0 | S = 0 | Stoichiometry = C46H69N4Ta | MND = 6
Ta        5.74931954273413   11.17156437763384    0.70711563523064
N         3.91615426464003   11.71987015597884    1.66119857106665
N         4.33544280312570   11.09237338167727   -0.82273479597057
N         7.91047171306783   11.31702733910625    1.66580843860717
N         6.34896685958783   10.08492638292550    2.58113574310162
C         2.95258065807630   12.14004901439424    0.77449222864446
C         3.16286051945404   11.77212517059761   -0.57713243240542
C         2.20803362993137   12.11697603810515   -1.53289332182241
H         2.34519282815859   11.80148826500741   -2.55665402968069
C         1.10416496077263   12.87256941143718   -1.17844295833300
H         0.38013670672254   13.14548472144070   -1.93163213033375
C         0.93330549676576   13.28903505016503    0.13210134360697
H         0.08321505151384   13.89903312384740    0.40029947670965
C         1.84270046980882   12.91754948219522    1.10629196775401
H         1.70657761327723   13.23361771612009    2.13136855116272
C         6.74685128728887    9.47947601415895   -0.50152280494679
H         7.02294068568351    9.76906094173940   -1.51606944333976
H         6.12584865596185    8.59062242878331   -0.60346520475886
H         7.66569550241906    9.16189657646723   -0.00414395067090
C         6.09862251555432   13.37119826623996    0.08501041934164
H         5.15570600205397   13.89416823578565   -0.08282235705053
H         6.70183950896453   13.49032913746022   -0.81160936933375
H         6.61682743224430   13.89824575369378    0.88454911733282
C         3.51975765421180   11.63139099535090    3.01016459830253
C         2.46930270238121   10.76800871292185    3.39285824833846
C         2.08646990414434   10.71569250401699    4.72574622619191
H         1.28109835231435   10.05988773876821    5.02134466232018
C         2.69969616202246   11.49580529888611    5.68396769141473
H         2.37725202976237   11.45165268157396    6.71373651845430
C         3.72874748032768   12.33894695980735    5.31135092313832
H         4.19648119598078   12.95486073082214    6.06307692366070
C         4.15982754474456   12.41126300312522    3.99469894310427
C         5.25421564255575   13.38365861975343    3.61639584452111
H         5.79071831459516   12.97274035943935    2.75733015373002
C         4.61964153263022   14.71597826321686    3.20315868495279
H         3.95480038560714   14.57168321317317    2.35492344897429
H         5.38795690241635   15.43384870209345    2.92323398809029
H         4.04329156991627   15.13074245221500    4.02853091525720
C         6.28790361906369   13.60488248746475    4.72113291095623
H         6.65099596210312   12.65202275704878    5.10128500088211
H         5.87864681756027   14.18121431275241    5.54774388442219
H         7.13388062342204   14.15964425624164    4.31987835754129
C         1.72187204890628    9.89427096601182    2.40695923619933
H         2.14687922283288   10.03703829973176    1.41209021678194
C         0.24247870827391   10.28604462289793    2.34465719347942
H        -0.26621309508012    9.69326089758132    1.58739962030323
H         0.13714984937675   11.33428993228033    2.08073084374160
H        -0.24793709709870   10.11667621193917    3.30036555378616
C         1.84320928207197    8.40982894157641    2.76252145654008
H         1.24719966402739    7.81514141155232    2.07329176670785
H         1.48623612395447    8.21191009795086    3.77066967369537
H         2.87640786643063    8.07997794931463    2.68987220893682
C         4.37008717550120   10.38703228389531   -2.05860277800585
C         4.91361905388378   10.96505509295198   -3.21502857784909
C         4.98225682715697   10.21735344416899   -4.38279091955390
H         5.41674781956375   10.65349284865850   -5.26968815498770
C         4.49135716240053    8.92872276677673   -4.43423116116989
H         4.54651030926554    8.36073169369756   -5.35139578842588
C         3.91078658559691    8.37768654991193   -3.30868965537648
H         3.50209575585046    7.38046315583956   -3.36216118086031
C         3.84288202878550    9.08470396643462   -2.11721359867701
C         3.15645950354185    8.46854131044996   -0.91978320526711
H         3.45738552496822    9.03139717081657   -0.02871748103881
C         3.54105188691182    7.00441502371026   -0.69666761664858
H         3.16858124736189    6.66964149026253    0.26915625310612
H         4.62157361764979    6.88149848837388   -0.70913604666252
H         3.11327451685519    6.35966574718534   -1.46037361307679
C         1.63966733682959    8.59242605169282   -1.10036308615898
H         1.34610938710448    9.63803452910225   -1.15552865377658
H         1.11792230431507    8.12803470040201   -0.26717812689127
H         1.32889634198897    8.09839673185385   -2.01893945930408
C         5.40920389569905   12.39150622556350   -3.21813210625890
H         5.15635258858804   12.83395085311624   -2.25331656260211
C         6.92910420098366   12.42691354243983   -3.39738711492386
H         7.41560449378996   11.86228209884107   -2.60430361143112
H         7.28972369065605   13.45351194062242   -3.36951753172119
H         7.21316783599998   11.99288899135712   -4.35354521052797
C         4.72202509100215   13.22248283514330   -4.30486422105100
H         5.03273667450341   14.26226611279747   -4.22670896618052
H         3.64177169263800   13.17973869017039   -4.18963832396490
H         4.97689346967884   12.86613008787551   -5.29982108472633
C         7.62331257212448   10.44129956108631    2.59890017251526
C         8.67827208738656    9.91924010271294    3.54514847602445
H         9.16863500633007   10.75243956450860    4.04592552666275
H         9.43057376788587    9.37090356083691    2.97707098310858
H         8.26916165549823    9.25748873809612    4.29609678535793
C         9.24345158491761   11.84688005966852    1.47301101451661
H        10.00423946372382   11.14326991277001    1.84290645787825
C         9.42470395382026   13.18102431851256    2.21289999621338
H         9.24841471252046   13.03667938840145    3.28158800785189
H         8.68036597333131   13.88913573872210    1.84457774201856
C        10.82449935110299   13.74026937853737    1.98118933639310
H        11.56539288074818   13.04815476951678    2.39004092324364
H        10.93337996547069   14.69213297368179    2.50605346203829
C        11.08281720519933   13.93406550669764    0.49022035898172
H        10.38098419214398   14.67166507426622    0.09509118961148
H        12.09420176632230   14.31555451863685    0.33459645699680
C        10.90154774500131   12.61548312359710   -0.25557280353056
H        11.64650839617726   11.89640947142602    0.09489024491118
H        11.06303646908204   12.76702456285415   -1.32479949233204
C         9.50116384450306   12.05714562488022   -0.02241898269609
H         8.75832442439330   12.75229057729985   -0.41238811412965
H         9.38092185568196   11.10555104660503   -0.54391653511925
C         5.72963115771894    9.04123449044245    3.37060584774988
H         4.68513419710125    9.05245303296524    3.03185786904750
C         5.67853667108712    9.28293805903831    4.88801509534950
H         6.67215161132349    9.25206062676900    5.33575658096174
H         5.25695655532996   10.27092548271852    5.07483183219304
C         4.81668593632671    8.21042366818396    5.54744826101899
H         3.79677947612351    8.28354117554018    5.16714731743569
H         4.78346490984620    8.38085842860769    6.62573152798806
C         5.37678137649816    6.82037373395314    5.25773225593615
H         4.75014959727157    6.06088923409277    5.72988279842179
H         6.37909817046058    6.73699179253053    5.68595516858881
C         5.44624517391072    6.56988211766867    3.75372927065103
H         4.43504549965735    6.57465903470106    3.34207899557462
H         5.87750902356334    5.58486230405613    3.56077535447091
C         6.28552165920081    7.64058777958693    3.06181346404523
H         7.31973680940487    7.55616739917917    3.39814065467151
H         6.27379360548760    7.49002927807653    1.97938969505318

