83
CSD_code = INEHOZ | q = 0 | S = 0 | Stoichiometry = C34H46FeN2 | MND = 7
Fe        7.92487694184903    4.14593305915766    3.00285779456396
N         6.82776688738095    2.78183907486293    2.16652476404014
N         8.59335590819704    4.61137540472027    1.24169257887942
C         6.00171814680294    1.13700203234217    0.49911184384367
H         5.37924500687413    0.76488452515704    1.30736834715478
H         6.65889085869106    0.33623195539155    0.16154615233214
H         5.36645853591689    1.40433592347125   -0.34362595041239
C         6.83378129862507    2.32711230710964    0.92775988678124
C         7.59827114087109    2.91262514130470   -0.07790921076215
H         7.51718247760395    2.48918938492233   -1.06748984554651
C         8.40602812086257    4.03566517497134    0.07014631490683
C         9.04015671235352    4.57385709951231   -1.19245261592562
H         9.82196794593685    5.29532659872714   -0.96987709628516
H         8.28125064457999    5.06189018549279   -1.80283311604417
H         9.45964551420102    3.75784828356809   -1.77789492180319
C         5.94332838098490    2.19395898255578    3.08745617510754
C         6.38727106372303    1.13495034706997    3.89574008182141
C         5.46926992899209    0.49109113019534    4.71059457497195
H         5.78377789366485   -0.34364231099509    5.31774807576479
C         4.14901580496462    0.90050800512261    4.75496731676034
H         3.44110891255609    0.37446049302550    5.37859866608634
C         3.74368777077238    2.00492031928848    4.02782842832360
H         2.72180936872148    2.34232788949595    4.10587415335265
C         4.62874685841528    2.67423334815779    3.19714962630342
C         7.84851781240686    0.75017123795154    3.90005802167420
H         8.40984040920690    1.61583834674986    3.51149253838011
C         8.34772965501521    0.44912889935934    5.31455484996592
H         9.43572519194444    0.43729276020251    5.32908124043141
H         7.99986271273125   -0.52389982628350    5.65351784083168
H         7.99719713745202    1.20239366984738    6.01526491393459
C         8.11999832939206   -0.44953109462154    2.99042441868778
H         7.91754630840365   -0.19894474144151    1.95431989712489
H         7.49088502500213   -1.29099533431752    3.27457703545589
H         9.16173445636869   -0.75307456544664    3.07230308728349
C         4.22151915037771    3.92854006023085    2.45902703776445
H         5.14487806222605    4.47433546401856    2.22398915479238
C         3.50173385108901    3.61001565943743    1.14671851422402
H         4.17511605562100    3.12920571576373    0.44545747156983
H         3.13438467453085    4.52814289629382    0.69269295962923
H         2.65522133942417    2.95002955225608    1.32682293228708
C         3.33055407318369    4.82513549291005    3.32262180609526
H         3.71605907572319    4.89472811645137    4.33672422939975
H         2.31499965414400    4.43856318029957    3.36873195335964
H         3.28709180716638    5.82515892034065    2.89562192660837
C         9.36399786911773    5.78106089164903    1.33127401358368
C         8.81547398855356    7.02231788670384    0.97378235531213
C         9.58500373842623    8.16323867285306    1.14558358049266
H         9.17265577762129    9.12942297322112    0.89600769710888
C        10.88058787777420    8.08121152100975    1.61796184833601
H        11.47135645667568    8.97806688555535    1.73416204992884
C        11.42649897172105    6.84984674877023    1.93590898009467
H        12.44508467724483    6.80450024507778    2.28772211541473
C        10.68279879126431    5.68813463195170    1.81226055404809
C         7.41783256097192    7.12040941964849    0.40399691198718
H         7.04969923573342    6.10769542610951    0.21869575825869
C         7.42028177902894    7.88829253697921   -0.92145092147128
H         8.18736879940494    7.50622750472455   -1.59107573769021
H         7.60962527838021    8.94620957950237   -0.75735539157642
H         6.45324987688057    7.79114291031030   -1.41092929456833
C         6.45233618372684    7.77938178856489    1.39069110719168
H         6.32569026456012    7.14731080436794    2.26373771248545
H         5.48070419021244    7.91857563838371    0.92064870327788
H         6.82281343792347    8.75139861031738    1.70873195786543
C        11.24853857105253    4.33000721298687    2.16901448187436
H        10.41789555855184    3.73694492184664    2.58784534690646
C        12.37365885114581    4.38570186662222    3.20132578257142
H        12.10512613215369    5.00502131160835    4.05299947729927
H        13.28710140627581    4.78010185246800    2.76134563656598
H        12.58504263865548    3.38200988870669    3.56439635395089
C        11.75672744318707    3.61197302024851    0.91444574442552
H        10.93694930905661    3.38450035740543    0.24158417271784
H        12.24052328185000    2.67720711057383    1.19028534805292
H        12.48027545208094    4.23343086529319    0.38971437411217
C         8.44225387706394    4.09894017792850    5.09665224771189
H         8.97680982394324    3.31697063531787    5.60934568071472
C         9.02485442981014    5.26624103991927    4.55029007397438
H        10.06751123864491    5.52587714408030    4.57582580259546
C         7.98953318720420    6.11167921096582    4.12365689542009
H         8.12435050926043    7.10322050032512    3.72839718448247
C         6.76398206081690    5.47061912094015    4.38707036423621
H         5.78709004499213    5.90231484056897    4.25772622489734
C         7.04324819070267    4.23476116816352    5.01152399594020
H         6.31476133337964    3.56677431369976    5.43871695775282

