53
CSD_code = INELIX | q = 1 | S = 0 | Stoichiometry = C25H25ClPPd(1+) | MND = 6
Pd        1.83521141591691    7.25309583318889   12.43344375181321
Cl        0.30490500429437    5.71975906376930   14.15975778433248
P         0.49038143670477    8.20235989763518   10.82281336355338
C         0.71744913446500    8.35942689746633   14.14660089862175
H         1.18573959431870    9.27190055321088   14.50002411496335
H        -0.28715211797612    8.45465509308424   13.74968790798099
C         1.21059187692045    7.15850460942927   14.54699177273458
C         2.36752572671848    6.93707500414349   15.49450220739237
H         1.98189738066500    6.53747354264986   16.43589139761027
H         2.84493537874942    7.89948415218341   15.69817923853538
C         3.38161071020931    5.96888722952361   14.86367945202840
H         4.31390427071193    5.97518860977239   15.43207370569180
H         2.98016451335876    4.95322372503607   14.86593999269413
C         3.60102653704389    6.44531041960951   13.45315245116689
H         4.21305027513650    7.35099500250642   13.34317734759016
C         3.31719895583401    5.67711540316969   12.33555082983903
H         2.96051029761283    4.65277708439743   12.44418027845707
C         3.17020529188363    6.35808108850989   11.09833637974084
H         2.82765964222313    5.79537378523522   10.23379636712072
H         3.87109995334252    7.16435621812879   10.86477534789806
C         0.53299512092713    7.68269579947685    9.08066040558661
C        -0.54069241434341    7.07595520148073    8.43980051247144
H        -1.46140051563148    6.88987321319163    8.97349293322094
C        -0.42844925853710    6.71804239808424    7.10673350775083
H        -1.26394319359567    6.25033736483905    6.60876230215356
C         0.74541206629140    6.96046007952210    6.41345414348382
H         0.82575932499804    6.67994658997830    5.37477587236199
C         1.81784553911485    7.56645301710046    7.05148170203755
H         2.73131626472340    7.75990583701805    6.51017396632594
C         1.71528550342624    7.92393194970351    8.38130457476490
H         2.54380953443122    8.40421684749129    8.88759409379535
C        -1.25558813953364    8.09466119459967   11.29825034342571
C        -2.10449601941288    9.18163065848051   11.46143863105191
H        -1.74566063641128   10.18461806588421   11.28147431552718
C        -3.41214178801578    8.96809871326270   11.86657622600601
H        -4.07583644938222    9.80990260134547   11.99098271339195
C        -3.86843753984896    7.68389391710566   12.11455310552895
H        -4.88839890705350    7.52719750064400   12.42927535450419
C        -3.01712055066717    6.59794019435043   11.96785393993999
H        -3.37229550380965    5.59900727064210   12.17008503953293
C        -1.71140613481515    6.80253104519250   11.56710884530846
H        -1.02382844270474    5.96740190330584   11.45122418342641
C         0.97449315978322    9.94632993824052   10.71070676717052
C         0.36053630638668   10.82442139298868    9.82196196031741
H        -0.43832668200573   10.47212838026059    9.18415937187869
C         0.78977881326778   12.13729966535925    9.75184967388280
H         0.31272970269551   12.82204009673987    9.06764906264756
C         1.83591268073943   12.57255137558667   10.55111086267680
H         2.16809900573626   13.59719901447485   10.49001750394063
C         2.46655459751417   11.69424588911628   11.41867948833124
H         3.29180410973749   12.03464968736605   12.02561214003645
C         2.03855572171376   10.38152830052760   11.49790272423709
H         2.54111944617154    9.66986168396161   12.16863914352805

