42
CSD_code = INEMAQ | q = 0 | S = 0 | Stoichiometry = C21H15ClN4Zn | MND = 5
Zn        2.98396098110884    3.35171448807529    8.21788622839858
Cl        3.24635518052448    4.32192644812367   10.18073995559300
N         0.88879511100932    2.92885801009795    8.40032123198395
N         2.18178618159502    4.87058939196425    7.14258833331037
N         4.43585171529735    3.14785604397177    6.79960788791332
N         3.78566856999986    1.47009236642049    8.77242825372650
C         0.26316383274062    1.92536347223071    8.96677877674532
H         0.79355928589784    0.98309740750685    8.99659420107001
C        -1.02310001263990    2.02897540059114    9.51083116881792
H        -1.48188792848019    1.16579448716776    9.96726457805394
C        -1.66337568464495    3.23831455528624    9.46426549305575
H        -2.64701872381330    3.37006625084009    9.89208313340468
C        -1.02903035486425    4.33395673638721    8.84571328770239
C        -1.61938877376974    5.60845988321070    8.74816946810385
H        -2.60303675516046    5.76392457670516    9.16486212434931
C        -0.93799696840373    6.63068685521849    8.14197774187581
H        -1.38157567034325    7.61390113214950    8.08309011697509
C         0.32977507967617    6.43114108419608    7.59358813186109
H         0.83444419121627    7.27134931215183    7.14250375388210
C         0.94941317995742    5.19196554407786    7.64606057707733
C         0.26839541984391    4.12269646557290    8.30865303780141
C         2.84340438527060    5.62659222035508    6.30459258361492
H         2.40209836016704    6.55990570951720    5.94946302234165
C         4.09290385157241    5.30010363851772    5.78696322418141
H         4.54281516885163    6.02139974015585    5.12074995026883
C         4.81495827668246    4.14183004917427    6.02195745162027
H         5.77574501624354    4.06985170096565    5.50932727177269
C         5.13281468023382    1.97275341056139    6.87145874323783
C         6.10966826914020    1.54076994598303    5.98317351176116
H         6.36448609126061    2.13929884424066    5.12247877952309
C         6.77982984583056    0.33143398639998    6.16918094579798
H         7.53774741914714    0.04294667390636    5.45546829396196
C         6.50391231905225   -0.48096811231898    7.23775959026270
H         7.04305923398430   -1.40314355192245    7.39232496480760
C         5.49865672163510   -0.11171315222334    8.15088772770652
C         5.15578114916604   -0.88811873131778    9.27653689449935
H         5.68244316338239   -1.81447935247890    9.45713796453578
C         4.17323254613666   -0.45162873648079   10.12461595368239
H         3.90227355744258   -1.01017319115571   11.00670243381426
C         3.50189756222366    0.74039257667083    9.82336979952319
H         2.71896477523651    1.11304433689412   10.46872833526516
C         4.78644975059284    1.10137208261037    7.95271507611918

