45
CSD_code = INENUL | q = 0 | S = 0 | Stoichiometry = C21H21AuN2 | MND = 2
C         2.19518894637382   11.38481267650270    1.75333801864926
C         1.97366946933438   12.36968020497502    1.08297866223283
C         1.71039254537073   13.51960822677356    0.30368899484843
C         0.41100504779230   13.80855389638248   -0.12256704813886
H        -0.39200971478187   13.13472370070645    0.14401942740188
C         0.15307490614663   14.93457087298420   -0.87384252550496
H        -0.85549994248596   15.13430583555816   -1.20970891897755
C         1.18029060496816   15.80631429518672   -1.23500489673895
C         2.47738125994688   15.51355801916431   -0.81394728059814
H         3.28300743938269   16.18937490733110   -1.06728246504893
C         2.74009407479870   14.39412419901753   -0.05419808486556
H         3.74838240990917   14.18281213383858    0.27540159195972
C         0.90191967631444   17.00344024186588   -2.03824462863084
C        -0.23298075704420   17.77571151030745   -1.79666084590465
H        -0.90386078137143   17.49772499060042   -0.99626650524923
C        -0.49455135577292   18.90314426896672   -2.55191958304691
H        -1.37640602960376   19.49412510694368   -2.34760125830755
C         0.37063164453742   19.27968009854120   -3.56561187077443
H         0.16505601361940   20.16049156745495   -4.15666159051362
C         1.50107124246896   18.52014660803456   -3.81669288657691
H         2.17829697775494   18.80608381184367   -4.60932314972840
C         1.76554552555963   17.39429379788544   -3.05995507124806
H         2.64076656530294   16.79719203697760   -3.27311595153135
C         2.85541019856553    8.20036295424538    4.00330193062583
C         2.62673530161581    6.64087689065620    5.58291434661791
H         2.16197285641088    6.12470232170122    6.39749891425642
C         3.78793857382002    6.39785583397834    4.93091692268179
H         4.52173570265689    5.63162991162442    5.07353301312252
C         0.84634042921200    8.37237413935167    5.42868318755931
H         0.16248519720708    7.59663770304972    5.78403024406336
H         0.40293815948277    8.87419768026909    4.56475528906151
C         1.11298704947239    9.39238236564501    6.53195250444979
H         0.17829176047438    9.84469287815518    6.85005923803946
H         1.76943562911078   10.17618769644997    6.16108010380320
H         1.58285763163652    8.91785223394807    7.39100074457537
C         4.98747981652553    7.43671162465162    3.01617870302632
H         5.06072442239267    8.47164986320734    2.67226192837316
H         5.91918430745807    7.15728676527841    3.51626122523203
C         4.72682982394292    6.51600037136377    1.82737893756130
H         5.55254822106549    6.57795110399487    1.12468894319569
H         3.81400983004539    6.81597115596613    1.31807018832745
H         4.62260201554287    5.48344119194089    2.15441273115597
Au        2.52170236018517    9.82133266839806    2.84221150525250
N         2.06815752047254    7.74378581842807    4.99593431055162
N         3.91246742417749    7.36704381984166    3.97225295475786

