55
CSD_code = INENIZ | q = 1 | S = 0 | Stoichiometry = C22H28AuN4(1+) | MND = 2
Au       13.55289478278165    5.84439037526853    3.78018300424917
N        12.94226270933395    6.28342914403326    0.79964696734768
N        11.99012887622495    7.09839621331766   -4.54685276452978
N        14.26071837711848    5.43709050920047    6.74366974021026
N        15.66318201104995    4.73385185379249   12.00629620489110
C        13.15569615338932    6.11201894273705    1.92775407825895
C        12.70692232126110    6.48381190729451   -0.50337814509861
C        11.42668587497817    6.22295685842908   -1.02880163795070
C        11.20763555121784    6.43282926429092   -2.36818299332734
H        10.22285584383137    6.23183251662477   -2.75335557512287
C        12.22293715628341    6.89950235534997   -3.22992203489856
C        13.49070788918565    7.15178101746932   -2.66398776278083
H        14.29667019048981    7.50842178637259   -3.28183106429500
C        13.74641721260229    6.95389852368493   -1.32947462640442
C        10.34192086577993    5.72795322830217   -0.12469359693303
H         9.41918666931060    5.57780183612089   -0.67704788591567
H        10.15529388154812    6.44332929369308    0.67627358518773
H        10.62925409246651    4.78265983330088    0.33579355588701
C        15.09582259305782    7.22347697588565   -0.74160000219645
H        15.77855091098040    7.59460603209175   -1.49995241024252
H        15.51485206980178    6.31328328237020   -0.31246924598741
H        15.02560879390466    7.96353486327205    0.05550728987665
C        10.69704011919115    6.80538025146002   -5.11969937701556
H        10.42640084392788    5.75825474169236   -4.96179146067752
H        10.72356303330516    6.98772370603853   -6.19021412183230
H         9.92025802616070    7.44098845347040   -4.68597596628197
C        13.03371321900568    7.59458197902840   -5.41336805956670
H        13.39924014268695    8.56566484068460   -5.07014993927987
H        12.64283489979270    7.71950363465729   -6.41911389812603
H        13.87396628730741    6.89626750752774   -5.45942792982264
C        13.97744918515167    5.58571046459265    5.62790664596394
C        14.59881170871074    5.26859142018159    8.02855847217806
C        13.68329463320009    4.67390676660103    8.91808624575898
C        14.05172801161996    4.50683697368132   10.23044755596292
H        13.34016805501942    4.05157560928382   10.89748903113450
C        15.31511224929177    4.91097381340035   10.71186560667939
C        16.20184004651746    5.50674374347984    9.78991207439213
H        17.17530984389505    5.83458342296293   10.11141292687176
C        15.86808054179872    5.68990115416579    8.47061890330683
C        12.34060735297916    4.24107328364253    8.41908813959305
H        11.79209459984644    5.09032813729441    8.01155997627010
H        11.75464683720057    3.80313611287156    9.22154440063382
H        12.44739875703237    3.50330307975216    7.62382473850701
C        16.81744519667100    6.32254116309581    7.50220185241966
H        17.74793153386737    6.58929935989753    7.99424154969904
H        16.38079208337754    7.22388545524343    7.07189168405108
H        17.04071816726458    5.63901410953111    6.68295240631570
C        14.74573766489688    4.12276397319231   12.93951532869458
H        13.83042685687794    4.71288047020678   13.03565614837509
H        15.21085649446194    4.06031414484956   13.91913845304129
H        14.48214237611312    3.10969514369732   12.62474960448757
C        16.95809074091095    5.15717930706457   12.48598756581243
H        17.76194360191700    4.63878569853782   11.95676237214386
H        17.04782893178320    4.92617062327750   13.54356164808384
H        17.09062313186386    6.23528484240766   12.36209274123261

