61
CSD_code = INEPAT | q = 0 | S = 0 | Stoichiometry = C31H26AuN3 | MND = 2
Au       10.21739907590622    9.54320392224823    1.72424808104062
N         7.95824311907952    7.79165771229059    2.75832748004658
N         8.61981825197738    9.15804367935844    4.26972687920631
N        16.74935273395254   13.46955632422736   -4.59798992496433
C         8.85430541587091    8.76451279689510    3.00369469898154
C         7.16943525356306    7.57611626334342    3.85556700655352
H         6.39824330986035    6.83427231912121    3.87219535472083
C         7.58527425141455    8.44349974219533    4.80860427906712
H         7.23830312241806    8.59941867844957    5.80913034347231
C         7.83960496862148    7.05712978124603    1.51816647097709
H         8.68971586441839    7.33291406087968    0.88824368394953
H         6.93603357106717    7.38156349114513    0.99668558627185
C         7.81641844563630    5.56810934249387    1.77015670917495
C         9.02567358101643    4.91939376548174    2.07688887208469
C        10.26858034809074    5.60013142697195    2.18498560416614
H        10.31867271911814    6.66750304850976    2.03363784326866
C        11.41800760393577    4.93442071877990    2.48584729655590
H        12.34827867191616    5.47762589039975    2.56132798218837
C        11.41429432622008    3.54149185610942    2.69843555806669
H        12.33997139394443    3.03738214281740    2.93244680488713
C        10.24821896139303    2.84824828810027    2.60615505340791
H        10.22301507058424    1.77993608477544    2.76619249610129
C         9.02935734265430    3.50588744459527    2.30006191407511
C         7.83651889447187    2.79823250832022    2.21333154122939
H         7.84450850977275    1.72868224295877    2.37054622520434
C         6.63127508626587    3.43340765687933    1.94033218235030
C         6.60878620398132    4.85040507759590    1.72689384902593
C         5.33827300350382    5.44541429322808    1.49190766208085
H         5.25649153826597    6.51255305383440    1.35170495437504
C         4.19698201786165    4.70398569389484    1.44974157051601
H         3.24723008417549    5.18675377983636    1.27155666423820
C         4.23337320760012    3.30810165797826    1.63707618970861
H         3.31552637884923    2.74168281559284    1.59123537228365
C         5.42181388789024    2.69431962851280    1.87871302159969
H         5.47230519354425    1.62624718485440    2.03353505049574
C         9.31488302438380   10.22890520387525    4.93413273938258
H        10.34055356230783   10.25524990722438    4.55606851212805
H         9.33620469713138   10.02126106268817    6.00746958952361
C         8.64128592078866   11.57743176780586    4.66889714525413
H         8.61691719242944   11.74912049704195    3.59019173680787
H         7.60988535989093   11.54640036627141    5.02952327308661
C         9.39037790923172   12.72011391263481    5.34787210475047
H        10.41889137282945   12.74000104778763    4.98225956415475
H         9.42248018981209   12.54440642316071    6.42579307735601
C         8.72876841905574   14.06390283353316    5.07057697766493
H         8.71028249062009   14.26450354094304    4.00201505915914
H         9.27572031978339   14.86528538823071    5.56044984842190
H         7.70531721285912   14.07135744038161    5.43948017880566
C        11.51034496723064   10.29631348805076    0.49936149039658
C        12.31272390790131   10.77279091218019   -0.27501860145758
C        13.24195799140769   11.33233966431387   -1.17706349610445
C        13.02643551402145   11.25282846797040   -2.55888442109843
H        12.13961240000562   10.75397863089294   -2.92392641378655
C        13.92766160890545   11.80115619518545   -3.44184460679378
H        13.76102697941487   11.74042377312134   -4.50840734267136
C        15.07244930087126   12.44523233120277   -2.96180849238967
C        15.29692352453525   12.52838704637156   -1.58397197875700
H        16.18444203595642   13.02752053700491   -1.22036382006189
C        14.39198522092088   11.97833831083235   -0.70580282526855
H        14.56013215537543   12.03995500653861    0.36029525373172
C        15.99623531349166   13.00909187083787   -3.86310490866028

