65
CSD_code = INEPIB | q = 0 | S = 0 | Stoichiometry = C16H37B9N2Zr | MND = 12
Zr       -0.44270956269089    3.35147022424680    1.76882948761077
C         0.78632824436053    2.02309356069792    3.52349693185428
C        -0.04552610178370    1.01874781377246    2.69496040398870
H         0.47435931862903    0.48162588115241    1.89603558194550
C         2.17489215607175    2.32524570956917    2.95534257367663
H         2.79346906172413    2.83877181201821    3.69958460557026
H         2.70824763023258    1.40265225574306    2.68585131449410
C         1.97661971234211    3.20433832010151    1.74162703827863
C         1.60185035865497    2.76140328111544    0.43210307638498
C         1.34301596903326    3.92412485762991   -0.34704759863263
C         1.51306943710669    5.05902396653502    0.47445142791214
C         1.87755566474362    4.62195839538972    1.77220238369850
C         1.84780186072309    1.37866711699405   -0.13502155839593
H         2.39392892393428    1.45970089854725   -1.07745912246993
H         0.93444654440290    0.80739313409971   -0.33770266877906
H         2.47211896724284    0.79468042627202    0.54230597625886
C         1.14733113352399    4.00130165983744   -1.83661431183239
H         1.92203693423359    4.62954566725524   -2.28041462953264
H         0.17996107032342    4.43791730281573   -2.09132776101137
H         1.21109545805383    3.01883727904524   -2.30000051865424
C         1.62206739839825    6.46471251582325   -0.04445456975891
H         2.62606858880172    6.63030857036411   -0.44468839420339
H         1.46566111855825    7.19910809605335    0.74334229049176
H         0.91494148435489    6.64681847100687   -0.85159886496462
C         2.44361996524098    5.51720896364043    2.84452420513821
H         3.49268287205096    5.73502244956747    2.62529552361837
H         2.40119000130707    5.05752522454995    3.82955379866086
H         1.91873682272684    6.46957446870962    2.89051317843850
C        -3.24670411916719    3.59010402245826    0.41207564992847
H        -3.72105392681362    3.93726455053983   -0.52341428698336
H        -3.47696484160099    4.32257296426376    1.18915779124981
H        -3.74644809180815    2.64398704271101    0.68895656335017
C        -1.65831643535638    2.42487474074244   -0.83360199387331
H        -2.13869079675659    2.76962187470523   -1.76801738515759
H        -2.14094168014942    1.45968757611077   -0.57644924755411
H        -0.60670820756089    2.24251822163291   -1.05160734392561
C        -1.02776960827865    6.71111782914619    3.15969156367985
H        -1.88840490473288    7.38114214009181    3.28603381589681
H        -0.15673527300584    7.32417141980965    2.92795253522112
H        -0.85578038077505    6.18363153108845    4.09742209704862
C        -1.60120824025482    6.44143325738646    0.84007626689686
H        -2.55759690894013    6.97437287544428    0.92779044597571
H        -1.65997246069430    5.70999256598465    0.03013140132364
H        -0.83056255594616    7.17401103388308    0.60906126366954
N        -1.81374449203535    3.41569310436412    0.21859022096813
N        -1.24635322943595    5.74128688996872    2.08188058122295
H        -2.06627324631766    5.19061777531848    2.36842268211488
B        -1.63093210894568    1.42622618022722    2.61900145615448
H        -2.27595877012878    1.01631622229375    1.70005509246198
B        -1.80685750237447    2.88049881445305    3.60959349797818
H        -2.71950989530512    3.67411563062542    3.54926944978070
B        -0.16536444245983    3.23363229443279    4.12444747567083
H         0.33533358595398    4.30292676586930    4.33289637445035
B         0.52017207010455    0.48378953694743    4.26563817462491
H         1.42175988757828   -0.27537320594405    4.28254419776332
B        -1.09700933010010    0.08414392524048    3.69595213783500
H        -1.32585344396803   -1.02842269691137    3.37758974524224
B        -2.22019814219549    1.28707655606444    4.31460678780530
H        -3.34002325683022    1.01136782488744    4.56858029533407
B        -1.27362249376266    2.45062410853376    5.27516371639706
H        -1.71521196122762    3.02700579575076    6.20778501764167
B         0.41714283928305    1.94579752601640    5.22394399797677
H         1.27454705831978    2.18562894889592    5.99773366629017
B        -0.84687216413845    0.71230519217573    5.33250351614094
H        -1.01017356246541    0.04636084223753    6.29015297962373

