48
CSD_code = INEQAU | q = -1 | S = 0 | Stoichiometry = C12H24B9Cl2Zr(1-) | MND = 12
Zr       -4.02364962873195    8.26954130790315   10.83602006147893
Cl       -2.89906153482861    7.17219026422142   12.65059279294472
Cl       -5.71777107330803    6.56885887173140   10.97142653730788
C        -3.67756049591232   10.43549283172662    9.66939094386903
C        -5.19372777134276   10.13005447119813    9.60101037852757
H        -5.56289136797439    9.65292481514842    8.69125686942784
C        -2.84526301543002    9.82408123069031    8.54055803801995
H        -3.27858920617229   10.04605037709127    7.55355400908359
H        -1.83185471964960   10.24599102843732    8.54150397711834
C        -2.79291905314135    8.32850334307031    8.76760292705083
C        -1.85340481153045    7.64523446526318    9.59715848240873
C        -2.23081554206556    6.28072580582999    9.65817905198391
C        -3.40898819012139    6.11453613159884    8.90986173578394
C        -3.78526116004119    7.37564368499759    8.38452238235301
C        -0.55007380312433    8.16463289279213   10.14880574133674
H         0.28279592978679    7.57600210202863    9.75365983864858
H        -0.52701520919309    8.07812664229581   11.23897150341691
H        -0.38338678098979    9.20649646154910    9.87738054868463
C        -1.42610759727210    5.22036101002383   10.35077245071058
H        -0.46481498486614    5.07384726765468    9.84957697827259
H        -1.95612938466666    4.27078873230014   10.35684377210855
H        -1.23259263580386    5.50825009016613   11.38417188853535
C        -4.13476741695221    4.83430051787854    8.61676359373073
H        -4.08508607685482    4.59642890305032    7.54991445141844
H        -5.18418426561822    4.91549679749653    8.90050723157584
H        -3.69837768871723    4.00611404036817    9.16959645816862
C        -4.91344583707656    7.54183034374019    7.39606529733234
H        -4.85037620317560    6.76399771357327    6.63058660526809
H        -4.86754359284120    8.50459504313589    6.88465855650054
H        -5.89088078252842    7.43730137642899    7.88027970275496
B        -5.85454691475441    9.85759648323500   11.07250534260118
H        -6.84210897190358    9.18625344599230   11.14567001510733
B        -4.55737250269234   10.07838590272804   12.23599640408008
H        -4.53892134544575    9.61329788127575   13.34584585393507
B        -3.13971186256345   10.41564855999867   11.23712082615000
H        -1.99847263455943   10.12890746411987   11.45750311846028
B        -4.70232793481391   11.77557964886941    9.29281840578800
H        -4.71752746011833   12.14779205229537    8.16949811073633
B        -6.14303187796064   11.42754806313435   10.24129217092578
H        -7.19969923064608   11.64287300637582    9.75345692996860
B        -5.70421755479589   11.42818202672392   11.94097295774020
H        -6.47487261718234   11.76891542045011   12.77363339575697
B        -3.96405449980722   11.76985738681281   12.04574940312556
H        -3.47417383478707   12.35191177219889   12.95360688121188
B        -3.35235747586258   11.97736774842100   10.39898454932562
H        -2.40290355371177   12.58284734886899   10.03373868628104
B        -4.95307204891366   12.61172660922303   10.80572790333343
H        -5.18898377933865   13.77021061588652   10.84928623965130

