57
CSD_code = INEWOP | q = 0 | S = 0 | Stoichiometry = C26H26N4Ni | MND = 4
Ni       -1.10760291608648    5.15626386557215    7.67676027564752
N        -2.85152191594917    5.36320243686268    6.99789570043141
N        -0.61611235084602    4.87885694642668    5.81181890742335
C        -4.08195516179229    5.71554585448988    7.38138924385891
H        -4.35235464716049    5.86124401674014    8.41113793268500
C        -4.91994781852577    5.85257326885997    6.27412077565307
H        -5.95695132053890    6.12713004712981    6.30243657499391
C        -4.16023698819328    5.56507613296890    5.15261934042920
H        -4.47893851673329    5.58047399013584    4.12793710403716
C        -2.87274694022437    5.27455162330885    5.62057500289629
C        -1.64300573208093    4.96495618951975    5.00094527599531
C        -1.57426057950103    4.71572737222859    3.52643137815776
H        -0.71934953909716    4.09422497837155    3.26962944127725
H        -1.48694056954224    5.66291374904873    2.99512382388085
H        -2.48981511695085    4.23123986424084    3.19686718933129
C         0.65967101111613    4.54231456903842    5.33429093717532
C         1.32352604958778    5.32802426440767    4.39341853593873
H         0.85363871178796    6.22694273005945    4.02185595638738
C         2.59023347736755    4.97737649085639    3.96717667557587
H         3.09746517950004    5.59921373514469    3.24300476012966
C         3.22420650216320    3.84148573532287    4.45650387452667
C         2.55830085878547    3.06480348565270    5.39836983506332
H         3.03839005119308    2.18201298019756    5.79537738725480
C         1.29630600323961    3.40835680315686    5.83745173656597
H         0.78562512971433    2.81380908861036    6.58310233282186
C         4.60688795193842    3.48533731187168    4.00278264270245
H         4.80111071403904    2.42487519925632    4.14408337850126
H         5.34397730557146    4.04411798816449    4.58067948200005
H         4.74688981672732    3.73411916850500    2.95287781159515
N         0.63631760157468    5.36319052318446    8.35562963401970
N        -1.59909956481603    4.87885011992608    9.54169831524656
C         1.86675279573734    5.71553400190696    7.97214243136153
H         2.13716118973911    5.86121827956494    6.94239407620553
C         2.70473629557034    5.85257652941611    9.07941624992364
H         3.74173896405333    6.12713711118759    9.05110610025905
C         1.94501762266594    5.56508867022172   10.20091459659819
H         2.26370933631108    5.58050073290632   11.22559971871880
C         0.65753257048577    5.27455364868325    9.73295154335990
C        -0.57221040864732    4.96495681449072   10.35257661669124
C        -0.64096078101333    4.71573072049193   11.82709082428924
H        -1.49587274309222    4.09422871961150   12.08389061741354
H        -0.72828232133881    5.66291770208619   12.35839695918144
H         0.27459248538401    4.23124326214129   12.15665867620193
C        -2.87488426494680    4.54230958193569   10.01922337964023
C        -3.53873783816192    5.32802281181668   10.96009425711346
H        -3.06884804549331    6.22694115249713   11.33165401168104
C        -4.80544536920066    4.97737862850959   11.38633772252479
H        -5.31267533988416    5.59921816580834   12.11050884786634
C        -5.43942061382193    3.84148773478361   10.89701342511943
C        -4.77351786744201    3.06480362428356    9.95514715800543
H        -5.25360950877792    2.18201388600390    9.55814078973087
C        -3.51152252259775    3.40835356698565    9.51606333968207
H        -3.00084433169506    2.81380348905891    8.77041286778858
C        -6.82210084662381    3.48534188172517   11.35074032688826
H        -7.01632974731755    2.42488191229938   11.20943192790653
H        -7.55919152882337    4.04413146756774   10.77285387286789
H        -6.96209386732102    3.73411537474990   12.40064840078724

