65
CSD_code = INEWEE | q = 0 | S = 0 | Stoichiometry = C20H28CdN6O10 | MND = 6
Cd        0.12134767764961    0.03989588138011   -0.03323024388034
C         0.25576152346663    1.13026263327319    2.86885615965406
H         0.71405249478106    0.15378781388779    2.96374056977227
C         0.25605711955068    2.02264355222839    3.92640910400758
H         0.71169932260734    1.74453098535773    4.86410624717088
C        -0.35839511661103    3.26076212405828    3.76673003016369
C        -0.96484604322363    3.52571259647070    2.54196201838350
H        -1.47320867088126    4.46572040704444    2.39392939340353
C        -0.90312725074111    2.57788394188445    1.53784075472514
H        -1.36587383933459    2.76451776803541    0.57730728021455
C        -0.44000377257696    4.28364065078666    4.86249085637251
C         0.73155634884733    4.41305738894121    5.68522311075769
H         1.59511538561406    3.81696248403284    5.44572556952568
C         0.71842716272831    5.30367861590756    6.71265860144722
H        -0.20464320363732    5.84943633238094    6.86552214782979
C         2.99297426322883    4.93571628859117    7.45379257112586
H         2.93532324617986    3.89951018362517    7.79993237103436
H         3.72082779811474    5.46750694159840    8.06268750233367
H         3.33518339620858    4.93800113209755    6.41864372191802
C         1.51995947717860    6.47069972083147    8.67942353080144
H         0.52336150820792    6.90452350414344    8.64756946555006
H         2.25490285130076    7.27967666561784    8.66043933866117
H         1.63314013633852    5.92308630682288    9.61988517105606
N        -0.30174507676119    1.40068959094073    1.69079469602791
N         1.71292753862793    5.59377970658742    7.55469220140699
N        -1.42612351749224    1.12008487870681   -1.90269552590734
O        -1.88885998961075   -1.16138713762375    1.25042071838602
H        -2.08087004302216   -0.71242216717650    2.07773887294428
H        -2.46832706035507   -0.76902589277853    0.58601339283032
O        -1.97795342403792    0.61689173155048   -0.91041749096530
O        -2.05472401846404    1.41086176582311   -2.88618543393675
O        -0.20043695860556    1.32644909335681   -1.84309115954309
O        -1.46117748666161    4.94718316490472    4.99368246299431
C         0.34964209620894   -1.58740841303609   -2.67966476248296
H         0.83661010531674   -0.65297161524168   -2.93246289320114
C         0.22947666323696   -2.60034308324697   -3.61436488758687
H         0.63241250437527   -2.46615617121704   -4.60598700523390
C        -0.39086688549374   -3.79018276643376   -3.24558838304213
C        -0.83110641057025   -3.90755647781319   -1.93030128956973
H        -1.28444930863620   -4.83001229488196   -1.60253318076751
C        -0.68215682894421   -2.83765073188050   -1.06727592428407
H        -1.02014718895749   -2.88997576528098   -0.04081697377980
C        -0.56830812406238   -4.94716256797483   -4.18513529976494
C        -0.90535249592535   -4.60030442953096   -5.54029402798266
H        -1.04960374450874   -3.56171137416142   -5.78346770921194
C        -1.06013916854231   -5.59429900636963   -6.45396047760054
H        -0.88280460542227   -6.60367656382235   -6.10305185604797
C        -1.67404277847562   -4.18586888788323   -8.32461093101722
H        -0.74684659607719   -3.62552767697078   -8.47770214929396
H        -2.16487425021689   -4.31930311019186   -9.28625232194686
H        -2.32901825829110   -3.60355629049256   -7.67624743525230
C        -1.40276064021685   -6.60649355818872   -8.62910775932149
H        -1.18927486595346   -7.51742608171239   -8.07492588785092
H        -2.37417273481337   -6.71386199063365   -9.11896912753864
H        -0.63826558796960   -6.48008541739692   -9.40177255959701
N        -0.11634751526381   -1.68988807357419   -1.43634795210634
N        -1.41573567112410   -5.47780008680976   -7.73654613785890
N         2.35163350688675   -1.10664816361228    0.49787424428486
O         1.77022796098818    2.31115496943048   -0.03391141657626
H         1.34299403787216    2.56057879039483   -0.86153111644731
H         2.50382211270621    1.74408294056974   -0.30230851760590
O         2.27325296765872   -0.36715569291204   -0.49761651795831
O         3.37523194657242   -1.67645338788118    0.76521568413701
O         1.34603164780000   -1.22808818892024    1.21735581103308
O        -0.44736362621122   -6.09256750875998   -3.77028924583290

