63
CSD_code = INEWUV | q = 0 | S = 0 | Stoichiometry = C28H30N4Ni | MND = 4
Ni        5.51861831792074    5.36216263155511   -0.00027227052753
N         3.73835125783758    4.77200569239883    0.33389202678781
N         5.80740909207392    4.86434940518680    1.86469252220794
C         2.56240527912169    4.54985033858385   -0.25815265755311
H         2.43485403421724    4.54368750458862   -1.32364263104944
C         1.57173393495230    4.29623911629490    0.69072717487947
H         0.54021581807409    4.08894767283138    0.47931837036401
C         2.17969786642358    4.34611479621655    1.93318251831068
H         1.71741330214709    4.19809098857758    2.89048679673732
C         3.52854402438815    4.63468159038070    1.69267821507077
C         4.68524677440880    4.63798825562790    2.49921119251218
C         4.60187874572167    4.28103433318010    3.95100144500501
H         5.51941451147208    3.80814530778103    4.29419310634428
H         3.76219463201897    3.61202214510411    4.11751482760977
H         4.43786257019856    5.18173439553219    4.54175995284645
C         7.04158906875765    4.68369329862914    2.50987188729136
C         7.41057339125731    5.49757503494414    3.57869035853869
H         6.74649909739935    6.28827860417723    3.89541493889486
C         8.62722729217577    5.30582446954170    4.20289655786752
H         8.91540906127768    5.93790609344826    5.02980613469321
C         9.47304706622911    4.30150083901198    3.76791019172441
H        10.42146012270012    4.15068981499687    4.26293431546733
C         9.12686292453649    3.48687490554679    2.69707268789250
C         7.90507772124848    3.67780826737496    2.05110806174650
C        10.06882775206536    2.41336868856314    2.24194244464369
H        10.44136346425486    2.63356423350931    1.24145812934645
H         9.56769155038368    1.44725452538923    2.20813271427273
H        10.91976715937383    2.34080752179975    2.91446784463876
C         7.50637140955434    2.83096167930400    0.87981903765044
H         7.09782727639934    1.87685483641229    1.21508766945058
H         8.36063808904875    2.63239194667856    0.23702943449792
H         6.73209790124863    3.33798225967558    0.28202690945753
N         7.29883936087514    5.95239728751636   -0.33447025778796
N         5.22960505870615    5.86058425274142   -1.86508247451430
C         8.47482187057173    6.17461835253145    0.25749400070925
H         8.60249814661373    6.18082999930645    1.32296869047262
C         9.46553143739169    6.42766201158012   -0.69152771514391
H        10.49714401956478    6.63461072913772   -0.48023153248889
C         8.85737773882727    6.37809395386547   -1.93389391756677
H         9.31959202017810    6.52597115524605   -2.89124868910788
C         7.50850454536247    6.08981762086688   -1.69325044409491
C         6.35172832902405    6.08679536408641   -2.49968601095588
C         6.43512165856568    6.44387437463168   -3.95144028107039
H         5.51746604677137    6.91652680196579   -4.29471727547973
H         7.27466237200260    7.11317510014933   -4.11777175886457
H         6.59952767745532    5.54322074503942   -4.54223023465056
C         3.99533844630732    6.04162762660942   -2.50998484755107
C         3.62619112975036    5.22825260322190   -3.57915399584476
H         4.29013175063801    4.43758043572141   -3.89624233096287
C         2.40949140546925    5.42034840178292   -4.20316016206765
H         2.12115248773234    4.78855998688923   -5.03023779332513
C         1.56376091207229    6.42453837952776   -3.76766568229665
H         0.61531239150660    6.57562902866987   -4.26254307500129
C         1.91006463662987    7.23861637115629   -2.69645125501548
C         3.13189026216261    7.04732357530150   -2.05065451129838
C         0.96819969503822    8.31194434825645   -2.24070099312727
H         0.59578474279451    8.09126239152740   -1.24029174104701
H         1.46935137457530    9.27802715386695   -2.20646481930150
H         0.11717339486942    8.38486518462929   -2.91306459391913
C         3.53063130313603    7.89374347394414   -0.87906233367237
H         3.93887819537214    8.84811236853840   -1.21388214120679
H         2.67643583436784    8.09177495490129   -0.23604505013211
H         4.30512124678114    7.38672477394914   -0.28156668131218

