63
CSD_code = INEXAC | q = 0 | S = 0 | Stoichiometry = C28H30N4Ni | MND = 4
Ni        4.53469466179077    2.99146673187224    1.90693564113444
N         5.86780530267919    2.80922995098357    3.22315145401034
N         3.36968290300200    2.18334153253379    3.24429460326275
N         3.18550850503049    3.54862275162588    0.71926330677671
N         5.72317211647450    3.26134345051251    0.38502935888912
C         7.13468739195427    3.15185993409000    3.47403927238846
H         7.77264057830040    3.60559089747935    2.73791977477674
C         7.47650592065300    2.83408817011461    4.78900274199347
H         8.43177539634621    3.00468316928193    5.24738586916637
C         6.35733826242528    2.26385381009643    5.37260421767973
H         6.25684434200007    1.90827491622562    6.38027563715240
C         5.36225497672442    2.26777777942203    4.38755877540608
C         4.00110126091634    1.89426172445311    4.35576972704112
C         3.37807040204864    1.18229980877633    5.51602983383594
H         2.50633285856936    0.61022042513902    5.20656487420472
H         3.06920734758532    1.90509007735215    6.27047270276342
H         4.10911059029914    0.51787553181395    5.96978073291615
C         2.01868713451104    1.84449012325458    3.06788178648289
C         1.66621071129357    1.00295325117913    2.01772829057108
H         2.44540238610287    0.62705300762292    1.36779405520231
C         0.33856205209603    0.67122827664355    1.79326959942769
C        -0.63436268513642    1.19316652550608    2.63344406585651
H        -1.67306421494023    0.94633056088555    2.46456647633934
C        -0.30427303523626    2.04264126395399    3.68381171839320
C         1.02608313261756    2.36311243925598    3.89846164629754
H         1.30033390162883    3.04296070398754    4.69219766562406
C        -0.02487963622127   -0.21786488207065    0.64327233049629
H        -1.07247754210050   -0.50521700212057    0.68609993120511
H         0.58775287547218   -1.11784470262910    0.64592620422785
H         0.15348705191607    0.30333023576646   -0.29710048981188
C        -1.38187701301732    2.59915137785599    4.56531753783907
H        -0.97137196992808    3.29487492220753    5.29270143926191
H        -1.88596564546694    1.79470549630538    5.10030395649563
H        -2.12921381524897    3.11975246667103    3.96828487334339
C         1.88884018491226    3.87026405529142    0.69565075264517
H         1.23730343776912    3.72753273421168    1.53811573431372
C         1.53728656797018    4.39561257285941   -0.54824748814623
H         0.55897775195294    4.73281105092018   -0.83269920716843
C         2.68197902408819    4.39277977957843   -1.32795655568989
H         2.78236335605094    4.73617897390897   -2.33985134897357
C         3.70047470485311    3.87397720692811   -0.51919735207168
C         5.08679523424154    3.66575318928723   -0.68699882244332
C         5.73028135059413    3.86272567325442   -2.02433584018785
H         6.65142424914151    3.29051856494927   -2.10787361506679
H         5.96160560449898    4.91721172726275   -2.17127426477392
H         5.03980324901921    3.56035461532436   -2.80767855147353
C         7.09919918249699    2.98570975718596    0.35436707986177
C         7.53670210979438    1.70918118884025    0.69574630509235
H         6.80115555975224    0.96401245766197    0.96905786182373
C         8.88892940761358    1.40604744032901    0.70880962306797
C         9.80187760833906    2.39719866868014    0.37507636182519
H        10.85916520280506    2.17285016190364    0.38768022865725
C         9.38672292265222    3.68009012231146    0.03791575130994
C         8.03144688463112    3.96882849815094    0.02706915778370
H         7.69087478509946    4.96758254616108   -0.20495990030144
C         9.35110449444661    0.03920868035649    1.11246576131480
H         8.66538455480933   -0.72376902404582    0.74994841862832
H         9.38360019936185   -0.02970203253945    2.20052349071488
H        10.34753945592747   -0.16652807541121    0.72778399284580
C        10.39879212054741    4.72892071061329   -0.31398220298494
H         9.93143484032228    5.70534520514868   -0.41336712604872
H        10.88507643453767    4.48108327862538   -1.25753672445261
H        11.17039301665356    4.78651554621037    0.45190886924656

