105
CSD_code = INIBIS | q = 1 | S = 0 | Stoichiometry = C52H40CuN8O2S2(1+) | MND = 4
Cu        5.08762652360996   16.73817546243032    2.20538267988494
N         2.62017839737169   16.37364832505935    0.49027717933111
N         3.91777489250381   16.14105133287083    0.68881038770970
C         4.29572831401358   15.21530736029105   -0.20350184711624
C         3.18690134901586   14.86180626937683   -0.99788698795579
H         3.17422122270113   14.16341795531615   -1.80817476576718
C         2.13036598023126   15.61575831182354   -0.52875243836191
C         5.62555184598543   14.71854976408719   -0.33178608267318
H         5.83227521861738   14.13160188869566   -1.21681407044842
C         6.67414105220528   14.90700835736231    0.50267357324319
C         8.03826113554779   14.45345876230130    0.16627751602993
N         8.80629631851868   14.89961691619466    1.24789763416490
C         7.96480345756402   15.51946254869347    2.12921362518738
N         6.71764783630781   15.55165814262979    1.72786555895199
S         8.60772738362454   16.24880670187475    3.56263238067075
C         7.18995398383513   16.21918183984178    4.69642102679737
H         6.28551186843191   16.50072694270835    4.16410549943392
H         7.41300733737531   16.93497786981165    5.48107935801320
H         7.10241011712861   15.22203456442334    5.11729569947208
C         1.91155897748381   17.26088005445116    1.32258643697214
C         2.45642881266182   18.50237151176622    1.62593301747116
H         3.40536418080317   18.78941915147885    1.19922646050948
C         1.77015714071555   19.36127825223877    2.46593570649012
H         2.18915962207793   20.32762063978447    2.69975498470126
C         0.54949285783091   18.98609019131577    3.00228068623333
H         0.02208186844945   19.65549866387699    3.66283042986357
C         0.00833935664728   17.74787080946767    2.69405692321901
H        -0.94089249048024   17.45334937894910    3.11380457282059
C         0.68543484022329   16.88001837329577    1.85699792314643
H         0.27212534983764   15.91303499578830    1.61299546317781
C         0.76721816487219   15.69590909404013   -1.03875861843100
C         0.10762358349940   14.52702799018836   -1.41361262483004
H         0.60010272332283   13.57453740536405   -1.28642542122630
C        -1.17398560065765   14.58641923373847   -1.92801096987853
H        -1.67991345503820   13.67639467181504   -2.21157630966897
C        -1.80549233967038   15.80972836598036   -2.08224292335314
H        -2.80479680276496   15.85488654219922   -2.48642652695959
C        -1.14919016337736   16.97641742802488   -1.72467138242792
H        -1.63351674191183   17.93193101034290   -1.85542776443915
C         0.13036790968722   16.92480482078000   -1.20529885759858
H         0.64344064497930   17.83984176792832   -0.94744781613609
C        10.18626028000507   14.61313165858749    1.40509068693433
C        11.04469178181632   14.85457755622913    0.34144120018620
H        10.65549500944459   15.26148390786820   -0.57719765236657
C        12.38722658759258   14.54493250198445    0.46539810192873
H        13.05461833958465   14.72894560572333   -0.36220528948630
C        12.87180580218604   13.99703132476763    1.64097557964995
H        13.91966070915371   13.75816094073570    1.73457768503377
C        12.00670217418189   13.73940733553328    2.69114215932628
H        12.37606719101501   13.29272299364316    3.60119369162057
C        10.66095112393683   14.03671013592697    2.57620781420786
H         9.98517398989890   13.80839080537360    3.38577837504414
O         8.44287636142793   13.86665223561268   -0.80366198227937
N         6.91185461403849   19.14635714145699    2.00615197531359
N         5.85979330016521   18.55538374794058    2.57231889314784
C         5.51463467025323   19.29428946427518    3.63577747337609
C         6.38276871459754   20.40011829431432    3.72933285728296
H         6.35094827648514   21.18179247408137    4.45904225347748
C         7.26683923625620   20.27636663348729    2.67670691194596
C         4.41438585699222   18.99991144579228    4.49272356657409
H         4.11394851534432   19.78524814642232    5.17334628889399
C         3.67977407893610   17.86452084576372    4.54603619255573
C         2.46358372025975   17.75258507765892    5.37447031311925
N         1.98359240902953   16.47027631948915    5.08244488495638
C         2.86447776603301   15.88705049296194    4.21156273659999
N         3.85882960551388   16.67034036141903    3.86938384457152
S         2.63081259463043   14.25257277801685    3.69329017264710
C         4.32437487828449   13.72862473299649    3.31497090200372
H         4.79849842176224   14.45557261690557    2.66148730900682
H         4.23564950480961   12.76687354328932    2.81973682482862
H         4.87384830085101   13.62141564013311    4.24497180441869
C         7.55125894763930   18.57305674501611    0.89102614054513
C         8.93765421677745   18.46412222428960    0.86791924762787
H         9.52197629958876   18.81299697031086    1.70519984306518
C         9.55620375706416   17.90366434333099   -0.23389937306835
H        10.63234392286655   17.83039640191636   -0.25476407515274
C         8.80038754307406   17.43605280483881   -1.29798615868264
H         9.28453293841555   16.99840442529750   -2.15709329739702
C         7.41905090376538   17.52949685070501   -1.26133729496242
H         6.83019283953418   17.16414890268420   -2.08830058079121
C         6.78893124645632   18.10090610836577   -0.17028882195906
H         5.71375181537554   18.19076119927504   -0.13958872121468
C         8.32534307011697   21.18794766080206    2.26040435789014
C         9.15271069511555   21.76158317297086    3.22364680178248
H         9.02461830138306   21.49436956357934    4.26196146022268
C        10.14115093658100   22.65255788950135    2.84975723752729
H        10.78117490207972   23.08872715883058    3.60116871382680
C        10.30767234735585   22.98696198832822    1.51583363998503
H        11.07790237636682   23.68448938241235    1.22563734633989
C         9.47833291370058   22.43108984165037    0.55515803569135
H         9.59687080686784   22.69966811363910   -0.48336305043198
C         8.49107328937617   21.53597915871497    0.92071662874090
H         7.83486866516908   21.12239735394789    0.16879921127721
C         0.83614401303701   15.89119588588031    5.67410864621513
C         0.59021291230930   16.10878221357065    7.02446783725179
H         1.27084513231060   16.70724352795352    7.60798677445014
C        -0.53694891820753   15.56042990289653    7.60880878407168
H        -0.72773631762351   15.73148991519900    8.65671804029292
C        -1.41221029283510   14.79320586302744    6.85831231438945
H        -2.28856607014078   14.36534030415608    7.31948014992394
C        -1.16213395529732   14.57903134721738    5.51357490350485
H        -1.84243450890528   13.98558085022621    4.92248206019250
C        -0.04372140973459   15.13077778089392    4.91499655354006
H         0.14003823528390   14.97810870588382    3.86350229656469
O         1.94697195687229   18.56430901561026    6.09883945798980

