93
CSD_code = INIDEP | q = 0 | S = 0 | Stoichiometry = C44H38N2NiO8 | MND = 6
C         7.62578287021116    5.94369688131459    1.27459068349313
H         8.61954751979531    5.71740618486786    0.91693859918355
C         6.51351174554633    5.36035583254897    0.65657193247955
H         6.65458668154309    4.70596477419343   -0.18949852975753
C         5.26221088027902    5.63027900545993    1.14893554945507
H         4.37742368671950    5.19156343298029    0.70889908820107
C         5.13442368026311    6.48965085804347    2.25169935262655
C         3.87921618883880    6.77886828883151    2.85595127550149
H         2.99291627875024    6.33193518637854    2.42881100513864
C         3.79872209123562    7.57621239068291    3.94581967841909
H         2.84820412531925    7.77753000900616    4.41934783639288
C         4.96128503735185    8.19498590382183    4.48531126567751
C         4.91902101099730    9.03383433079060    5.61005920353729
H         3.97793754947322    9.19898531946916    6.11665813336440
C         6.07573625608650    9.63571273932312    6.03917950508922
H         6.08438295963266   10.28176211052810    6.90312856113771
C         7.25772785080941    9.41877716158002    5.32361233078070
H         8.17385710748339    9.91532021844788    5.60810235947762
C         6.21734138280351    7.98601673244449    3.87158633349849
C         6.31381891306272    7.06594083251414    2.77019773014360
C        10.45639456335652    7.22971750371971    5.53840105783460
C        10.80070469464578    5.93153448907491    6.20726266026606
C        11.62678549274470    5.86766864732698    7.31968183157190
H        12.02611448438804    6.78688658043992    7.72072791359272
C        11.92222036880956    4.63951030094539    7.88199148948779
H        12.56609054286233    4.58116033321929    8.74695024965461
C        11.39469319259013    3.48136657264948    7.33188975217623
H        11.62879543900151    2.52208459123199    7.76958511923987
C        10.56926579114316    3.54241800253287    6.22112016172908
H        10.16255556977020    2.63865205670373    5.79119885015292
C        10.26901004794254    4.77115202266804    5.65178442001574
C         9.38174721885079    4.85302599110581    4.44893347870972
C         7.92401672870855    4.84484155928313    4.76980281295014
C         7.07257795643942    4.12046970525701    3.94093844264968
H         7.49188146200140    3.60391378972915    3.09004938865373
C         5.71881982134679    4.05906723363612    4.21126995677761
H         5.06603155900391    3.48477934458356    3.57016774389539
C         5.20082741073553    4.73560967767661    5.30294659013145
H         4.14177716077013    4.69558131632563    5.51145867469990
C         6.04337842729015    5.46039225342888    6.13032651740058
H         5.63898429460457    5.98761193001861    6.98237271093665
C         7.40166646113011    5.50431242096098    5.87712610482435
H         8.05499792711959    6.06804095423669    6.52544935714931
C         8.87586000683494    8.95131522321307    0.46986641182812
C         8.26605532543961    9.94458360484142   -0.48116353912954
C         8.82485096078527   10.15221980081943   -1.73483807095590
H         9.68853226732581    9.56977110565197   -2.01718988175844
C         8.27506071300155   11.08914053318105   -2.59012319824120
H         8.71089949081123   11.25373685671311   -3.56428863780872
C         7.16449588734684   11.81840532890041   -2.19466904072273
H         6.73364498029085   12.55127748438770   -2.86093854828374
C         6.60054913142933   11.61133465357198   -0.94734025965045
H         5.72940563968697   12.17305360765247   -0.64162963686849
C         7.14762362112194   10.67148637744053   -0.08305644057317
C         6.50342257501224   10.41345355854929    1.24152284468464
C         6.73401514956484   11.45869705284404    2.26681263201079
C         7.79784761814579   12.35130094138575    2.17284797683982
H         8.47830931125646   12.28414852203293    1.33703852502660
C         7.98412136347037   13.31015087119373    3.15083893036756
H         8.81502304982190   13.99693192990040    3.08145651660235
C         7.10588534694618   13.39572793943334    4.21926890045575
H         7.25366811011729   14.14917467458278    4.97914286257325
C         6.03498206218869   12.52112460903347    4.30940431319175
H         5.34281946106644   12.59598567746370    5.13559717929750
C         5.85198395583456   11.55511659017472    3.33977211902133
H         5.02021947978338   10.86744299112345    3.38478572654606
C        10.80049646155267   11.13144363444863    3.82460892783603
H        10.29136122092394   11.59897512559249    2.97998203367543
H        10.79225437403088   11.84036930766659    4.66861088755891
C        12.24688820669225   10.79436608097619    3.46387066719884
H        12.80133542833505   11.72595334565899    3.32573233480332
H        12.68969490293965   10.25591087672875    4.30588835476171
C        12.34480843384614    9.92756140153589    2.20977632336290
H        11.64698752585073    9.09275741570514    2.31441700560800
H        13.35190917869988    9.51104044279082    2.14193963503590
C        12.03282894896331   10.68920301551144    0.92734505980292
H        12.15851190648842   10.03632421924606    0.06698036677642
H        12.69688234235524   11.54530612175306    0.81236394590985
H        11.00536402077275   11.04550972469103    0.92497718397781
N         7.53035423362568    6.77319842001503    2.28786581447349
N         7.32479432689611    8.61956716822075    4.28312959959027
O         9.61734678434891    7.09104541938975    4.59394044181308
O        10.96141925121646    8.28368751248357    5.93322687399745
O         9.79048594660027    4.67525976771529    3.31428054365329
O         8.65962226422015    9.20756755505775    1.69322099006504
O         9.52183769201394    8.00590912672800    0.00767217145866
O         5.74653530968204    9.47914384627660    1.41585147044978
O        10.74305424492738    7.05340778325056    2.13000762258941
H        10.54960343164237    6.12540887161222    2.33909910997150
H        10.41296538660808    7.23849593201857    1.21233311101738
O        10.03342958981923   10.00380875777366    4.17812061344476
H        10.52005863912546    9.49532563910959    4.88787229734932
Ni        9.16690400906653    8.18817808399298    3.15523175105551

