67
CSD_code = INIFIU | q = 0 | S = 0 | Stoichiometry = C25H38ClNPRh | MND = 6
Rh        0.76492376920666    1.20643826675932    9.92268527325093
Cl        1.71948286018859    2.91148680261844    8.74551420265458
P        -0.92596969978475    1.19207165472554    8.34193374737552
N        -2.17855067150822    2.66992183671388    5.37887166829575
C        -1.29791953804512    2.92885332265842    7.74129467187902
H        -0.30638516823110    3.32750318791883    7.49850827597165
C        -2.31401842027781    3.18146348530100    6.66114030737034
C        -3.33954936981805    3.92206864291993    7.14939951962261
H        -4.20365364023245    4.26261404268689    6.60815928581325
C        -3.09622379984496    4.24495079755744    8.53091391523876
C        -3.83532358842513    4.98729714167297    9.44108109600989
H        -4.77777103934261    5.43179998361757    9.15470185818751
C        -2.13044760819883    4.57386412043182   11.09863812203965
H        -1.76687117746009    4.71169857289798   12.10654521903827
C        -3.33835369533286    5.14499530813089   10.72389884995617
H        -3.90032243443520    5.72041391235840   11.44589646900730
C        -1.38479570355138    3.83095214292812   10.19264270476578
H        -0.43457851033979    3.38651769196361   10.49051679828096
C        -1.86954433519438    3.67530388754184    8.91200503188242
C         0.35291698201553   -0.73528883891031   10.73826182029283
H        -0.29819367507703   -1.29544881864214   10.07026585833450
C        -0.25539591503644    0.24746432207620   11.51718938682110
H        -1.33165424898458    0.36126796944778   11.41201848547998
C         0.25058251744887    0.74262471709166   12.85196146573545
H         0.01227745232049    0.00288297765865   13.62517363930280
H        -0.29901327381103    1.65490221155135   13.09990152924345
C         1.75784815142560    1.05073469348150   12.85630866792954
H         1.95739370990724    1.82921445093925   13.59543913771888
H         2.32931113390637    0.16981201236599   13.15258158470181
C         2.23639235449384    1.52165828122500   11.50251888289463
H         2.50766257136235    2.57575214921867   11.45186839048818
C         2.76925003452045    0.67934275242009   10.54464358337054
H         3.45009009324350    1.11075213708667    9.81091233956019
C         2.88835541107894   -0.82021543111970   10.67391429352543
H         3.71739991266470   -1.05564550813485   11.35039866994598
H         3.14998015505272   -1.22508932838205    9.69264393112511
C         1.59352655740390   -1.49275599292920   11.16459212602987
H         1.54925307645168   -2.50627741517947   10.75956361538974
H         1.59762767856907   -1.58364086676665   12.25200519852483
C        -0.35352325024243    0.25704104383397    6.82366651531269
H        -0.98748071763048    0.56113783031207    5.98494164732421
C        -0.43657542111725   -1.25605501258955    7.02510611779773
H        -1.44773178140379   -1.60742088361200    7.20848251709779
H         0.19366820139108   -1.55320250109163    7.86159495090434
H        -0.06487199080826   -1.75930270432833    6.13292575219137
C         1.10327329682747    0.60376763627625    6.53057697427447
H         1.26121681368929    1.67254558396969    6.42068187341831
H         1.43552637171753    0.10762358041253    5.61942736290357
H         1.73113528840599    0.26870234481960    7.36040884980158
C        -2.61319673357911    0.42020190610036    8.64641997973972
H        -2.35951351215548   -0.58198619158188    9.01902753236075
C        -3.40518738101996    1.13496373699646    9.74184051917890
H        -2.76294672903581    1.49794258601121   10.54015156395586
H        -4.14224200503130    0.45604210713862   10.16998540224767
H        -3.93257322784765    1.99237413285137    9.33447102774071
C        -3.50412179310617    0.27492235559060    7.41523154967981
H        -3.01264908868043   -0.23674349198894    6.59417917035740
H        -3.82138696645375    1.25267457206063    7.06799457696248
H        -4.39367624346301   -0.29408593630363    7.68525686838187
C        -0.93428792983877    2.93621752311788    4.68236833018337
H        -0.78867757968892    2.18398003344463    3.90539327921245
H        -0.09755816577141    2.89699484303972    5.37031860488489
H        -0.94654551352100    3.92626212975106    4.20713656308719
C        -3.32273192572046    2.82521391666483    4.50761316315247
H        -3.16303057150864    2.21756257027429    3.61665034814530
H        -3.47905838497815    3.86594220645193    4.19434563211585
H        -4.21969196784392    2.47142280642522    5.01259370453990

