59
CSD_code = INIFOA | q = 0 | S = 0 | Stoichiometry = C23H33ClPRh | MND = 6
Rh        2.61792466680247    2.60852969961968    2.66052197311635
Cl        3.15413809125645    1.12444766177029    4.27341423900393
P         1.67774944845066    3.78083096278371    4.39695900291301
C         0.47115474355281    7.73253430362519    4.05523049666570
H        -0.16202545961628    8.09890914567022    3.24291436463875
H         0.24717307743686    8.34008449431509    4.93610823900424
C         0.24487715246943    6.27660312551070    4.32430022310255
H        -0.72458151600021    5.91147982847327    4.61187347421248
C         1.37218037282780    5.55920129668310    4.16552970675495
C         2.43843683453375    6.46986549222088    3.74899306232044
C         3.76056034967676    6.22258974288978    3.41011887971847
H         4.14831343422755    5.21176255427499    3.41056195231740
C         4.55952253402436    7.29223762569731    3.04303092848103
H         5.59207660419980    7.12073627041275    2.77595681664743
C         4.05118778252717    8.58327672327692    3.00947437639470
H         4.69411915562015    9.40229969474917    2.72241127581455
C         2.72365052196093    8.83311238184391    3.32750519016067
H         2.32872563416092    9.83801067262975    3.28489770541073
C         1.92207180024738    7.77167486897812    3.69224058032538
C         2.68963251968680    4.11601001854842    1.11782306211899
H         2.68171636161530    5.11065375978138    1.55270725134839
C         1.46630800977116    3.45386199759443    1.07864633135907
H         0.60776031520048    4.00044235629256    1.46557342597005
C         1.08582151463521    2.38608973867547    0.07880115519913
H         0.17612773117074    1.89449344655810    0.43506225682801
H         0.83910889553681    2.86198203519186   -0.87743914497712
C         2.18077807749825    1.32390069849759   -0.12584782065175
H         2.85283973652019    1.61758663077527   -0.93311945832889
H         1.70954434714733    0.38459689227416   -0.42294386183082
C         2.98526667687987    1.09390775462374    1.13198487328067
H         2.80003820279055    0.14192679321740    1.62898808989987
C         4.16804078515129    1.74524544013509    1.41926375003633
H         4.86636968645296    1.25527168877091    2.09828427389883
C         4.79985668673597    2.81788334289146    0.56560113017188
H         5.59465694453934    3.29030511249167    1.14899642319372
H         5.27317587025461    2.35048707654996   -0.30523122570208
C         3.80205977897941    3.89905769827486    0.11326647614244
H         3.36639109263981    3.63899226642624   -0.85282572258477
H         4.34111808366909    4.83948859630694   -0.02086925978817
C        -0.01412931053621    3.15533581921972    4.89857599163072
H        -0.49695427520558    3.92399652899861    5.51188343207598
C         0.06554862148649    1.85507525316422    5.69375235488908
H         0.43405496421156    2.02067491860567    6.70284288144470
H         0.72304899497269    1.14517375541581    5.19586481236854
H        -0.92609670825047    1.41027114279697    5.76940222937581
C        -0.83448539414132    2.92821535412338    3.63225083766337
H        -0.94567587852540    3.85035759053172    3.06403575917820
H        -1.82837327450389    2.55722413929313    3.88052537386791
H        -0.33299885343534    2.18481478577491    3.00860112755330
C         2.56504852535686    3.78970803901074    6.04710041857613
H         2.47633325139728    2.75365344345416    6.38917016127319
C         4.05359701073316    4.08901614158213    5.90429914471955
H         4.48023103203311    3.48970859789757    5.09961049169855
H         4.56961739535379    3.82906796126675    6.82745209273476
H         4.22710394351277    5.14391608235156    5.70350698956719
C         1.92481832715179    4.72945085122298    7.06262002202291
H         0.87040959987530    4.51002982996609    7.21120429314778
H         2.02018305603972    5.76547667193060    6.74209394512819
H         2.42965242723440    4.62416320409782    8.02194314849664

