87
CSD_code = INIHAP | q = 0 | S = 0 | Stoichiometry = C33H50CrN2O | MND = 3
Cr        2.45609657608880   15.43956939230852    7.58963837638064
N         3.46924710542719   16.63326464901663    6.63687541425424
O         1.24645698573393   15.43953055196382    8.72078667479300
C         0.22940749601906   15.43952701464244    9.64622820786883
C         0.82852165078566   15.43967189151812   11.06439594926517
H         1.44457020058541   14.55309023975256   11.20136137511349
H         0.03893439966665   15.43969588441269   11.81098166175085
C        -0.62760981681859   16.70414773219700    9.45670301524716
H         0.01340272032122   17.58376049471060    9.50017738328937
H        -1.11372128532595   16.68354024870234    8.48383428706567
H        -1.38812618092762   16.77155672305397   10.22998876056900
C         2.85979663037728   17.74738369477309    7.21298719624821
C         1.70878851447296   18.31123127222914    6.61983818809348
C         1.06554721362343   19.35820047910044    7.26127911540133
H         0.17542402430954   19.78793122165521    6.82605900872263
C         1.55023461357935   19.87291535120153    8.45107340151980
H         1.03534611961164   20.68841089865386    8.93781093853011
C         2.70794285350837   19.35470163069364    9.00458529976303
H         3.09121770500355   19.78182123196966    9.91971748853404
C         3.38631398677117   18.30951322046580    8.39682216671440
C         4.68113978996154   17.79609950952426    8.98318328321044
H         5.02255937805566   16.95185363524999    8.37416567503621
C         5.75813485496663   18.88390363677199    8.95173743946342
H         5.91678707401255   19.23419724094058    7.93461975590373
H         5.46809236565103   19.73465595720105    9.56413730898200
H         6.69887896566744   18.49167660645750    9.33245674528488
C         4.46279833682331   17.29015621660794   10.40853472972823
H         3.66082385277686   16.55593040567839   10.40949388945773
H         5.36856323947201   16.82366739656250   10.78877681990612
H         4.19274232491191   18.10478192949750   11.07656681143324
C         1.19228339998059   17.79278488417665    5.29770753574875
H         1.82022159097058   16.94906548524327    4.99100917729134
C        -0.24068318109928   17.28298588684949    5.44653532419806
H        -0.57504408397236   16.81436422361939    4.52385782663515
H        -0.27723749782275   16.54979909991435    6.24904274530176
H        -0.92292651197973   18.09585770777080    5.68396687980487
C         1.27513145208081   18.87607297867512    4.21911378776562
H         2.29808396616785   19.22865254776437    4.11086152867347
H         0.94428884220195   18.47856144544543    3.26184968804164
H         0.64621600461633   19.72609127352281    4.47358724064268
C         4.99417676530411   17.95668334720813    5.19751744669342
H         4.48270497037663   18.80129128386453    5.65608333805824
H         6.05995266462680   18.03121667172412    5.41492310448050
H         4.87122699279219   18.01548135113867    4.11597798909142
C         4.43756194640041   16.65802146422315    5.72233596733472
C         4.92985514344791   15.43948101554258    5.25760221530090
H         5.71449641846300   15.43945200409426    4.51701525294061
N         3.46917763501325   14.24575502864042    6.63689517447002
H         1.44448576175340   16.32633583919974   11.20120801565632
C        -0.62744348208714   14.17476742912861    9.45688076287028
H         0.01367735236628   13.29524129863049    9.50050620356796
H        -1.11353094642699   14.19515929149539    8.48399530419797
H        -1.38797214475024   14.10738323427151   10.23015661282986
C         2.85974821866157   13.13159501348240    7.21297025051886
C         1.70873869630662   12.56776405560677    6.61982032128391
C         1.06553515735336   11.52073907703276    7.26121053645806
H         0.17541746546624   11.09100968214722    6.82597875257090
C         1.55025330631746   11.00596999431990    8.45096677611606
H         1.03539327538414   10.19043439397582    8.93766721166791
C         2.70795040178355   11.52418931947727    9.00449295769760
H         3.09124618817695   11.09704013082773    9.91960228411353
C         3.38628355196403   12.56942871013747    8.39677289825801
C         4.68107187817782   13.08288467057261    8.98317859709213
H         5.02249460085781   13.92712938829071    8.37416150959687
C         5.75810411990597   11.99511695023387    8.95181088461861
H         5.91680870207650   11.64479734528151    7.93471032289117
H         5.46806966260279   11.14437329333326    9.56422632467166
H         6.69881919720584   12.38738923290030    9.33255509854147
C         4.46263191754706   13.58885443496687   10.40850560329539
H         3.66064138530265   14.32306454339865   10.40939032079286
H         5.36836159691202   14.05537153467049   10.78879625777292
H         4.19254626335534   12.77423806267829   11.07653744898326
C         1.19219638198332   13.08626850333949    5.29772636989761
H         1.82005368559108   13.93007788228333    4.99110905854779
C        -0.24082890264830   13.59590226000576    5.44655707704170
H        -0.57520258103341   14.06458494795069    4.52391521539924
H        -0.27749930305260   14.32900303195322    6.24913713207831
H        -0.92299878569800   12.78293596895985    5.68387557658761
C         1.27517700081496   12.00306977345031    4.21905239053777
H         2.29816906441385   11.65061055872729    4.11078506404985
H         0.94429941804386   12.40061328494841    3.26181363286562
H         0.64635301753811   11.15296386623265    4.47346070158760
C         4.99412009147187   12.92229195080988    5.19758554306811
H         4.48263058395350   12.07769340524300    5.65614855615655
H         6.05988979070666   12.84775015641287    5.41501903972473
H         4.87119896329054   12.86348209505206    4.11604352970803
C         4.43751123573774   14.22097133164469    5.72237126667771

