103
CSD_code = INIHOD | q = 0 | S = 0 | Stoichiometry = C43H55ClN3V | MND = 4
V         1.91866733745096    8.41417305972593    4.57330774904983
Cl        1.61440501340986    9.86545377539056    6.06870844915835
N         3.65156965916527    7.86617040418290    4.57879954020714
N         1.10003279677625    9.28482673538053    3.14273432351670
N         1.05878021970952    6.77139940495226    4.30779738087888
C         4.16800564674800    8.08189587435581    5.85529399312267
C         3.60282160098843    7.44145942230626    6.96377908198104
H         2.81346121227117    6.71728124092984    6.81754279158183
C         4.05132029013995    7.70875718758430    8.24340944982605
H         3.59058915667946    7.19814895894341    9.07772188520358
C         5.07955266639029    8.61260095119292    8.47445290582348
C         5.64832469918167    9.24612690386506    7.37550416251572
H         6.44735850428518    9.95881543468288    7.52645140773452
C         5.20780495200100    8.99167129133740    6.09279963615951
H         5.66197909613262    9.51217020086915    5.26197026036417
C         5.54864292503443    8.91919396921075    9.86405700417716
H         5.29040571243470    8.11355733479469   10.54720929067219
H         5.07504510879030    9.83368313957188   10.22316770228121
H         6.62612074483674    9.07000330659464    9.88520760771645
C         4.47638218062722    7.59176882163031    3.52393114012900
C         5.85651207320799    7.34925146161930    3.63529179637788
H         6.32799083755830    7.37044835609634    4.60713254891060
C         6.61774082945689    7.05545565073612    2.52454880634171
H         7.67804343706858    6.88075666131880    2.64542527756872
C         6.05427816595847    6.96898711005815    1.25602589963859
C         4.68172509091087    7.15581130715140    1.14465710257919
H         4.20834467124186    7.06113008123562    0.17678132387488
C         3.90621325600615    7.45215563022546    2.24588858229616
H         2.83233180689065    7.55132457565477    2.13409051798982
C         6.90642137983220    6.67287216332298    0.05924207402688
H         7.56311591817373    5.82625249240727    0.25415257328930
H         7.53512211565036    7.53126497485104   -0.18012607180465
H         6.29200755064086    6.44664059900742   -0.80884288657638
C         0.53204838326702    8.67982140325167    2.11076049998039
C         0.18474577042218    7.32906269943849    2.15259676811805
H        -0.33091876188583    6.93319052215949    1.28934705581945
C         0.32816869401893    6.47117925123223    3.23512043368623
C         0.22361932773799    9.43990406971399    0.84288794874587
H         0.02559482360120   10.49019534086424    1.04411248606839
H        -0.62934292029315    9.00436357337600    0.32872298842053
H         1.08565096636413    9.38066625689113    0.17566999250421
C        -0.42516366467047    5.16437190935876    3.12442583064109
H        -0.30035063421554    4.54410922915402    4.00763981462885
H        -0.08223016303988    4.61308563285649    2.25014266808674
H        -1.48728515849757    5.36751385559520    2.98712641144436
C         1.01973334944580   10.69537817832528    3.20686676080625
C        -0.18006430780784   11.27385568002326    3.66095172317350
C        -0.27631460872370   12.65626019372511    3.71466471672485
H        -1.19213221588484   13.11282348532807    4.05809543802471
C         0.77929174771020   13.46275903689967    3.33313286083726
H         0.68542847668827   14.53757328304055    3.38313924314041
C         1.95269884500637   12.88805518479284    2.88796548078927
H         2.77474492048732   13.52102498278920    2.58973109021772
C         2.08851287016435   11.50837078909154    2.80891281539503
C        -1.35850826489024   10.42505428327740    4.08821203474554
H        -1.05647980896224    9.36993773559118    4.07754501682670
C        -2.53081114887146   10.59404512194914    3.11778356048926
H        -2.85961002498126   11.63045527217570    3.08829697966004
H        -3.36856013397662    9.97678673092155    3.43576218906130
H        -2.24703120355133   10.29482938655037    2.11189640612437
C        -1.79272149342679   10.76948655289633    5.51466496660209
H        -0.94463537433547   10.68573931214249    6.18958767836692
H        -2.57152643517354   10.08267577681989    5.84042494978441
H        -2.18602417826405   11.78126323937596    5.57403740452939
C         3.38254750560725   10.90768240739576    2.31330242888418
H         3.27791059038957    9.81798001368237    2.29135427680565
C         4.51236540774108   11.25037766658951    3.28601309213435
H         4.73931103431137   12.31426519947648    3.26212253543328
H         5.41346066583669   10.69847029873595    3.02266200818181
H         4.21185146853675   10.98735985505169    4.30022326282403
C         3.72191987827247   11.37612165117010    0.89714647420197
H         2.90070915718430   11.16569616249150    0.21527423728150
H         4.60902468506127   10.85643566184664    0.54075011669920
H         3.91837739832420   12.44540388289696    0.87280607399783
C         1.11789028317361    5.82137979455921    5.35230596649018
C         0.29889217521719    5.02004713192919    7.47233493790147
H        -0.36630097098101    5.11604332493759    8.31659581509981
C         1.16871962321503    3.94846916062105    7.41654550198594
H         1.18528529400457    3.21941214445799    8.21310433033018
C         2.01542302321928    3.81316078518542    6.33417044341555
H         2.69272310866566    2.97396538986151    6.29496812502082
C         0.25793188739626    5.96599290629225    6.45737344319270
C         2.00407398128756    4.72913422610260    5.29047149198218
C        -0.72196315074802    7.11427046134085    6.54889847950163
H        -0.50074599174099    7.83332607086517    5.74916806138654
C        -2.15255345394349    6.60248563185456    6.35941164986909
H        -2.26079380271113    6.11359638328532    5.39361472954466
H        -2.85614581889511    7.43078298226323    6.40713611777708
H        -2.41232620480256    5.88658835909415    7.13665704949777
C        -0.58097343163818    7.85563342406933    7.87966749036834
H        -0.83888702165246    7.21899938467215    8.72268207572737
H        -1.24162917223976    8.71927816502940    7.89187022456038
H         0.44181085447203    8.20639373761123    8.00246498686928
C         2.95860452665017    4.53165267375467    4.13459744099543
H         2.85614537643547    5.37542479101254    3.44397091876867
C         2.65517075622485    3.24158733911243    3.36775993858906
H         2.78103975874672    2.37218380513918    4.00906455353292
H         3.33714122574559    3.14736444184408    2.52542944643968
H         1.63730598405292    3.23922085116807    2.98877695702720
C         4.40465181480595    4.49648532646666    4.63877136532061
H         4.60606358002342    5.34352101605741    5.29004332813590
H         5.09250103961572    4.53664703786661    3.79691900401647
H         4.59922260594249    3.58381400345637    5.19733410005745

