62
CSD_code = INIJIY | q = 0 | S = 0 | Stoichiometry = C31H26AuO2PS | MND = 2
Au        3.69265510981497    3.29101231020449    2.87038019763189
S         1.20963475115687    4.17101617841256    1.57658724215252
O         0.66310793018846    3.22404913898242    2.53226388839541
O         1.53687978014444    3.62295061067837    0.27860612845515
P         4.50656233201796    1.28395223289514    3.56786995577190
C         2.66784971413240    4.98481924814904    2.25375804048134
H         3.08084401741887    5.50139176081265    1.38806032976785
C         2.19570452277194    5.95630288339469    3.26326701060260
C         1.52127023196896    5.52374031276162    4.40467453754798
H         1.36946824152597    4.46357578582782    4.54834168943137
C         1.02848862723714    6.42816594877198    5.32380677701717
H         0.49822133902296    6.07192758039795    6.19598538483173
C         1.21544338145978    7.78841594753915    5.13655669061453
H         0.83414609772397    8.49550549135758    5.85871339689471
C         1.89674090386718    8.23222699587301    4.01726583316966
H         2.04891629526296    9.29079247062091    3.86083709417971
C         2.37459218033964    7.32661298355873    3.08811147581569
H         2.89478680840777    7.68321566301249    2.20957097851487
C         0.00531343226465    5.49591913338183    1.36104164172381
C        -0.97401118866929    5.69847438832233    2.31244445164957
H        -1.06672537439358    4.99301890047168    3.12272443685652
C        -1.81278791837551    6.79415010223011    2.19758996867933
H        -2.58061622857982    6.96598730113821    2.93727546312422
C        -1.66175154615461    7.67129350029005    1.13589882465449
H        -2.31349483570648    8.52858257191391    1.04992854090096
C        -0.68114405692075    7.45330594223404    0.18072977987191
H        -0.57180345783988    8.13616978796068   -0.64895129156989
C         0.16203721627432    6.36157133605257    0.29670310989107
H         0.93309048089392    6.16054121559710   -0.43126054591542
C         5.78253180650664    0.52331674272635    2.52998632005332
C         7.03413437103759    1.13749684023593    2.50049644657745
H         7.21926211617224    1.99076764219754    3.14087607700312
C         8.02284018100596    0.65369792038913    1.66648921667496
H         8.99504956739312    1.12382694521838    1.65299394454133
C         7.76349837754212   -0.43135635880298    0.84252188411049
H         8.53648467830901   -0.80884701066903    0.18994291483696
C         6.51182045205703   -1.02398369205905    0.84749726352428
H         6.30715633208288   -1.85990730551515    0.19503675013304
C         5.51706286024692   -0.54707415253332    1.68326493015885
H         4.53721646536968   -1.00362123015240    1.68154147212655
C         3.23402791015345    0.00149258104349    3.74282738452782
C         3.55815301897342   -1.24603266065877    4.27401350567651
H         4.57428734603073   -1.45188511837548    4.58304289043688
C         2.57942616577036   -2.21192981664819    4.40129317675709
H         2.82914927708196   -3.18011473690420    4.81050040637917
C         1.27790531121931   -1.93811367469363    4.00574518750484
H         0.51600163015249   -2.69698819485957    4.10718029160620
C         0.95512700064049   -0.69613749159161    3.48657943807794
H        -0.05707852010705   -0.47770549589971    3.18238965275232
C         1.92866942586070    0.28058832431196    3.35352482191611
H         1.66653383564462    1.25226793552570    2.95461986386913
C         5.24131667829828    1.30492085415746    5.23077100640800
C         6.31092318744638    0.50550400638867    5.61893211220374
H         6.78611002528964   -0.15218101018608    4.90412310874854
C         6.77466036634090    0.56558725782787    6.92101676357943
H         7.60704541405160   -0.05397652826786    7.22129271831138
C         6.17677675095103    1.41479244413854    7.83781460767353
H         6.54447148232348    1.45682668915659    8.85218293301581
C         5.11174468815440    2.21385785682811    7.45318600845144
H         4.64865489780820    2.88039028696761    8.16527739249008
C         4.64652159826813    2.16172940379833    6.15295278648547
H         3.82309651466920    2.78860302402866    5.83400569222840

