84
CSD_code = INIKAT | q = 0 | S = 0 | Stoichiometry = C39H37Cl2N5Zn | MND = 5
Zn       -1.52837339605078    0.16159759308518    9.84571125596692
Cl       -3.26917546935432    1.21729603403060   10.76065086045197
Cl        0.10386575943935    0.95856842811120    8.54826139551539
N        -0.45164332512266    0.00279662644159   11.87071243893884
N        -1.39082400541788   -1.87951631646313   10.26984701474443
N        -2.52693587085050   -0.92145677599463    8.08076935355123
C        -0.12383458159209    1.09418876824295   12.63081448945216
C        -5.79469678576885    4.45695316555012    0.27836344040146
H        -6.11054773002338    5.47606855824128    0.43120632302419
C        -3.91101150257576    1.74164375042840    6.02976405237433
H        -4.28836461360732    2.74436854348775    6.16956579834862
C        -3.36975085849116   -0.09920037266051    4.58713049417121
H        -3.29744860638018   -0.53928752108578    3.60422977896728
C        -0.37198991277374   -1.20769896470332   12.27632669768756
H         0.04153768224373   -1.49523760042252   13.24468938942676
C        -4.35858503864664    1.99856412766389    3.63544694118528
H        -4.66771724522397    2.99776053205346    3.91147901476492
N        -6.30456698151710    4.59331745933242   -2.08152997603543
C        -1.85647677184471   -2.75593859824174    9.38878002237685
C        -2.93686921271660   -0.82279636618412    5.67005826234047
H        -2.50818949892762   -1.80279055841456    5.51638726662219
C        -2.98142967329504   -0.27350275433917    6.96234359685827
C        -0.83040346565261   -2.26933594443910   11.40801553348338
C        -4.93437590445225    2.40892856169546    1.24612797523476
C        -5.34816065648466    3.74165463446578    1.36279539411691
H        -5.32127962024750    4.22983427110517    2.32466661328884
C        -0.71059293366754   -3.62806647017326   11.72008747190293
H        -0.25065026366119   -3.93480955631392   12.64640745469850
C        -4.45538279612377    1.61418538485225    2.34694271359617
H        -4.15770753612504    0.61005571941554    2.07278808115637
C         0.52345462453383    3.41176549889951   12.66924165310253
H         0.78702819293142    4.31398327249854   12.13639540862947
C        -3.46338219054204    1.03387269921734    7.11676578902538
H        -3.49549969393216    1.46003281588535    8.10794835166062
C        -3.88251692218868    1.19919168804106    4.73474113010732
C        -5.44434171883821    2.54531473437957   -1.12425166341965
H        -5.45779095450754    2.05546913755868   -2.08429271830431
C        -5.85829887727490    3.88234283348605   -1.00297884213560
C         0.50321737194898    3.43155961540159   14.07334570435608
C        -4.99854430979429    1.84022220620574   -0.03255712844367
H        -4.68351610304430    0.81443478448941   -0.16690233494950
C        -0.15806692724461    1.10396493454496   14.03505675694825
H        -0.47493296619443    0.22067209983661   14.57103278072919
C        -2.43391853021498   -2.19284229269928    8.18857962041657
H        -2.78117195677799   -2.89186817717093    7.42564670598956
C        -1.77260664527789   -4.13132268216030    9.63250787062353
H        -2.15635303277008   -4.83589759222544    8.91139241890198
C         0.20651806164185    2.28034425999285   11.96073713241016
H         0.22918123128982    2.27596393696990   10.88158531564114
C         0.83857595846736    4.65476691846118   14.75523005737675
H         1.06479457066415    5.48365765302138   14.09806454418545
C        -1.19081024263999   -4.55997487303939   10.81445482083383
H        -1.11165838853669   -5.61562151306609   11.02867461896737
C         1.88192186897239    8.39670218820529   16.82147525069297
H         2.13882060937922    9.28435230779335   16.26668148194282
C         0.13961964162226    2.24736599209136   14.73351496495708
H         0.07897349416539    2.23023927572575   15.81100956031247
N         2.20432203419480    9.54817346631126   18.92336194042183
C         1.24958963639672    6.08306911295869   18.17262868426071
H         0.99869116349744    5.18076153051196   18.71337369611201
C         1.23740355754574    6.06151627302233   16.77198484361790
C         0.89653043999027    4.84078916043030   16.08913154259052
H         0.67252994401585    4.01124679205874   16.74763707400732
C         1.56544219449486    7.25769656732048   16.12195494218883
H         1.57696555286865    7.29709095273402   15.04376161525223
C         1.89067970893919    8.41479260639174   18.22701620084285
C         1.56399540707143    7.21627693813298   18.88307458015953
H         1.54221044721057    7.17279153718259   19.95983983374283
C        -6.55240102035336    6.00978865133070   -1.97777119555164
H        -7.45079479875674    6.22035078170547   -1.38685311797777
H        -6.69246730312158    6.42716008687934   -2.97227997974116
H        -5.70333657214040    6.51913828480379   -1.51531517289548
C         2.36344708432706   10.80985723379017   18.24440685557519
H         3.29303659753599   10.84346435372662   17.66499323093947
H         2.38738946189858   11.61451030835442   18.97580520537291
H         1.52456113676031   10.99400422692185   17.56904313020746
C         2.37015174321217    9.51114751538361   20.35465693440663
H         1.41153503569611    9.38650106885426   20.87115943292852
H         2.82143679329432   10.44173320745149   20.69132529349207
H         3.03211834943692    8.69197860405171   20.64541756513621
C        -6.50851534277377    3.95013207367585   -3.35505353458431
H        -5.55844699428635    3.69460876228734   -3.83836355886238
H        -7.05866003616102    4.61787432711579   -4.01427981529583
H        -7.09602957165032    3.03670949552009   -3.23599462526581

