50
CSD_code = INIKUM | q = 1 | S = 0 | Stoichiometry = C17H24N3O4PtS(1+) | MND = 6
Pt        3.04438336752202    1.65839394330542    2.14168951632322
O         1.62200214108898    3.04778336234497    1.96310310252981
H         2.01091350478059    3.90892646861947    1.78410392868008
C         2.03010503462206    0.49733824617268    0.78432737008488
H         1.40753292859774    1.11556446278028    0.13708318662464
H         2.71577843657171   -0.12722965103973    0.21848697102169
C         1.23151260513441   -0.25099969199030    1.83537891215893
H         0.16730337437911   -0.34227469101990    1.60167139566874
H         1.65631489199595   -1.23769894858398    2.01174119504997
N         1.46494821894916    0.59999634904277    3.02744180083922
H         0.75661033812764    1.34600743987347    3.02540065055671
C         1.37550960962784   -0.06769260847563    4.35693139728210
C        -0.08252952618127   -0.49402577472705    4.56385234380796
H        -0.75215811300836    0.36236182075767    4.51838618923860
H        -0.18666424854277   -0.95088833029015    5.54368805430873
H        -0.39409865278047   -1.22460774189631    3.82241242639525
C         2.30377677877276   -1.27668712651651    4.43652150250608
H         1.90575196134415   -2.13675748060859    3.90424003418667
H         2.42544706981581   -1.56239657186274    5.47717492862912
H         3.28846378842343   -1.02893011269612    4.04810705740184
C         1.77258503696281    0.96146480431025    5.41220906870824
H         1.18571944640446    1.87163862587956    5.30818604676953
H         2.83282829979398    1.18601737091008    5.32690722355350
H         1.59601962331674    0.55900414226925    6.40538771241966
S         5.48379424388643    0.52739173483133    3.23888210573265
O         4.50383668033993    0.16182506318522    2.17419515002259
O         4.82128028398068    0.70201946108934    4.50209011086692
O         6.66435296952053   -0.26292845952588    3.18160552321018
C         6.03487449876429    2.28724050898720    2.75447778571546
H         7.10596858564681    2.29229348802748    2.93868056391752
N         3.97226791887309    3.15157415168845    3.63014432116292
C         3.26313424214766    3.87120175236580    4.49495415623694
H         2.19257771531257    3.86880505366955    4.34382219689456
C         3.84654479040369    4.59170532501307    5.51936011743840
H         3.23499759649784    5.15536821846748    6.20418949147384
C         5.22815017638075    4.55936219999691    5.64568193736231
H         5.72209745662356    5.09539526574092    6.44105987076378
C         5.96687792756711    3.83055830470729    4.73033318582210
H         7.04232619305722    3.78979419008515    4.79250427203659
C         5.30149948190034    3.13679305024231    3.72425518423105
N         4.44409585283921    2.53653680974695    0.93491730985829
C         4.14056979473966    2.80577016858582   -0.33757483342001
H         3.08713265063255    2.83884835690255   -0.58295130797569
C         5.10565292852573    3.03734949412925   -1.29495881822771
H         4.81968490059706    3.25618529386293   -2.31022202165142
C         6.44292264026138    2.95996505213364   -0.92020460424315
H         7.22778571645024    3.10234484167157   -1.64638729977317
C         6.75011531206346    2.70990777402688    0.40221180452176
H         7.77556293013826    2.66242865043101    0.73200380451000
C         5.72504059713300    2.51555594337898    1.33229797876706

