55
CSD_code = INILOH | q = 0 | S = 0 | Stoichiometry = C20H32N2Zn | MND = 4
Zn        7.40234494997840    5.97279043703078    9.64025022291205
N         5.31187254119670    6.71824126693147    8.90648598854542
C         4.55949693902021    5.98818391087207    8.09901930493344
H         4.87280655652957    4.96214159957684    7.96790116359228
C         3.43412739423361    6.47584083112799    7.45427662725050
H         2.87677885793938    5.81405781441724    6.81285834115744
C         3.05054927288445    7.79941921385085    7.64408235695445
C         3.85243566533136    8.55578452428061    8.49917689875613
H         3.62701496734125    9.59120865450009    8.70101814676459
C         4.95732000412283    7.98114764253559    9.09761048869048
H         5.59348812841284    8.54931918792760    9.76057583867782
C         1.84088543420254    8.42629241751952    6.97651940252047
C         0.88509895870404    8.94277841520475    8.06132184580899
H         0.56692571087572    8.12518582816417    8.70516795015438
H         0.00290881210973    9.38131627059392    7.60051393304331
H         1.35739505698301    9.70106717506021    8.67970707437365
C         2.31502026310550    9.59369263456383    6.09947507724289
H         2.81053779446469   10.35870915958038    6.69089298135059
H         1.46562460902842   10.04902017577650    5.59528791692201
H         3.01436122316705    9.23898185412248    5.34519316715497
C         1.07985692772098    7.43403199045988    6.09394630944700
H         1.71010685639695    7.06161190355441    5.28974424121696
H         0.22343671892642    7.93232895812436    5.64484443844279
H         0.71085179750594    6.59344577665412    6.67735236836663
N         6.70403866661367    6.35201697611966   11.83034697277581
C         5.47513799749556    6.10800714250097   12.25618371750758
H         4.71608856841531    6.04820945183338   11.48858821212951
C         5.14563651205579    5.93417453618712   13.58982282845949
H         4.11865795836822    5.73781014882490   13.84887819007553
C         6.13926915394182    6.01022890603446   14.56082381407238
C         7.42894518825686    6.27298209561578   14.09955993244147
H         8.25883302405071    6.35064719664915   14.78420408774501
C         7.65932663884087    6.43311672876032   12.74661992030563
H         8.65215390038209    6.63813687823279   12.37060853437183
C         5.88036376481778    5.81990401942462   16.04349559141587
C         4.40553642852155    5.54771296203244   16.34970171324567
H         3.77985603252774    6.38037748814126   16.03601143008371
H         4.27684447901384    5.41671340156498   17.42194187250494
H         4.06471995984727    4.63949902507830   15.85800038468543
C         6.30465308532255    7.09224770690005   16.79036740877148
H         7.36222619390564    7.29958025316061   16.65320265589977
H         6.11566919223115    6.97815248268565   17.85539370915755
H         5.73859687029110    7.94873264322973   16.42963049178055
C         6.70777029132852    4.62450994555745   16.53672476739369
H         6.43024499700652    3.72384624758936   15.99304872809995
H         6.52609992697188    4.45795373953028   17.59612155256437
H         7.77174207812473    4.79327389033810   16.39593398006624
C         7.14868265512057    3.92510185896605    9.65164646305464
H         7.20784340106831    3.45935602976195    8.66884895237290
H         6.17544346805626    3.65776693245978   10.06189570529861
H         7.88636095686837    3.41566568892339   10.27045335046612
C         8.54124948333959    7.64650243361367    9.25477007741835
H         9.61294431358171    7.45923266801919    9.20850461880098
H         8.39882358779828    8.40737845590096   10.02130620992023
H         8.27719578558733    8.11656442395408    8.30834204286138

