68
CSD_code = INISEE | q = 1 | S = 0 | Stoichiometry = C33H27N4O2RuS(1+) | MND = 6
C         5.07651577684908    7.80783161036867   13.05690025241305
C         6.05711811961118    7.18507149012514   13.88004107467386
C         8.16709141995186    7.28608878482704   14.77298760247724
H         9.09106290183387    7.83657970417922   14.89199398864375
C         8.01013295475711    6.03042154844129   15.36091730189782
H         8.82273025697535    5.61327318912630   15.93339848263791
C         6.82709240541683    5.34055550042671   15.21120708525956
H         6.68240603730635    4.37209571578401   15.66376596813878
C         5.80206716385835    5.91952020096481   14.44537852246356
C         4.53639286920966    5.30972854366923   14.19906360252812
H         4.34590793045408    4.34375638187809   14.64085733454053
C         3.59505176436144    5.91377846184018   13.43050054711590
H         2.64231196963357    5.43897017907206   13.25336770486586
C         3.83483723091409    7.18179893795973   12.82409297225456
C         2.92478644171658    7.85442819099700   11.99144578515816
H         1.96160286934267    7.41655443347639   11.78138630091740
C         3.28821782934010    9.07125202087382   11.45507151814691
H         2.61141697333074    9.61561636941984   10.81644476762681
C         4.54556359615029    9.60941035170175   11.73221225439497
H         4.85567347543107   10.56545765616075   11.32760490066751
C         8.79099688718249   11.47507997000095   14.41756678794296
C         7.46426638143799   11.68984882335056   14.89204010467733
C         5.30922406725894   10.90966757222990   15.02491660640731
H         4.58239428583428   10.15211703830796   14.75602856056977
C         4.93704263120142   11.97406318180800   15.84569442210608
H         3.92060765466913   12.03644990075525   16.19967623784237
C         5.86324208577761   12.93575699194495   16.18366365711903
H         5.59514776647866   13.77703333888222   16.80368452173076
C         7.17778611729898   12.80359438762133   15.70951970869188
C         8.22760727988863   13.72196326346613   16.00482849710877
H         7.99286005539006   14.58136041287846   16.61398460491325
C         9.48700416323100   13.52348350742689   15.54315446094991
H        10.27558722646400   14.22254158009715   15.77633673042571
C         9.81598056842165   12.38431205585564   14.75140399204457
C        11.10872305133171   12.10050903066911   14.28325589687972
H        11.92058103478412   12.77852685229851   14.49550955786824
C        11.31217155120046   10.94196708211147   13.56783746210616
H        12.29291856049375   10.67683939064321   13.20793349258586
C        10.23687698568757   10.09769149398086   13.28816662874014
H        10.39221685836651    9.18422110271559   12.72730808192369
C         8.87891313491900   10.36138076926657   10.55482127066091
C         8.14925842835681   11.47109364525304   11.02949657084391
C         8.55324098821923   12.73700260546020   10.56013589073330
H         7.99676698071811   13.60240502679785   10.88613367876690
C         9.64136911505376   12.86065671683153    9.72522981929207
H         9.93657602995904   13.84304815635939    9.38829275477898
C        10.37718942630651   11.75086934356762    9.32253583014087
H        11.24165482562639   11.87016656898514    8.68975531223842
C         9.98639854128637   10.49245215679898    9.73701694900991
H        10.53761603738118    9.60917688674912    9.45228714627544
C         7.22869908401861    8.21554488253705    9.71687213959616
H         6.39867695711706    8.92544628667807    9.67262072103218
C         8.05125215219063    8.23167721141873    8.44617480197891
H         7.49054381506622    7.77373765019175    7.63349239986885
H         8.96406096503792    7.65921709899105    8.59914636998141
H         8.31159296312270    9.24649313209376    8.15568760609208
C         6.76109332925056    6.81621463744708   10.07279567023563
H         7.63046908183588    6.17717172649388   10.21725528701196
H         6.15111053986629    6.39986365074750    9.27400957807579
H         6.17757316162596    6.81457430765871   10.99232817007269
N         5.42597547611269    8.99567484532180   12.50611486147473
N         7.21875546816613    7.86371753157493   14.05333527476460
N         8.99842757052305   10.36101828159361   13.67534782385320
N         6.53524830988106   10.76708103777698   14.54552883193562
O         9.34808381140989    7.84823401424609   11.29398443095396
O         7.15519607137531   11.33887293185062   11.85957012848769
S         8.25324123660998    8.80078981713865   11.14887198153405
Ru        7.23550130042735    9.60800283180518   13.04041072085346

