119
CSD_code = INITUV | q = 0 | S = 0 | Stoichiometry = C43H69O5SY | MND = 9
Y        12.15553371856869    7.97243960017300    6.82453744119448
S        14.46690535402461    9.55809491156938    6.50059475370626
O        13.12481840803041    8.05238926453105    8.65084634014232
O        13.66074943081255    6.67325042084734    6.00633027292593
O        12.32106740280407    8.81415620114431    4.20535267642001
O        10.58074299723614    6.51331026117862    5.26245563025534
O        10.81724055662379    6.14470261685359    8.16556329642204
C        11.41231842798692   11.35169449176639    8.52290757474539
H        11.97861219268997   12.25744407357710    8.65530500981811
H        11.05791721671186   10.87494215821066    9.42230444051412
C        11.21171580129279   10.81217379790084    7.32076497419624
H        11.58637168284246   11.35213555376484    6.45040384019383
C        10.50475303730924    9.54462877260307    7.03820969266088
H         9.88649098452787    9.66811111680154    6.13729310758694
H         9.82316871078100    9.32517759634005    7.87335305782600
C        13.76716908871365    9.09732552539082    9.11513991015031
C        14.45895827399327    9.96307859913643    8.24671724599046
C        15.13715403973620   11.09082336917204    8.66616145217304
H        15.62282587928676   11.69315462106651    7.91623139191687
C        15.17174147876209   11.41485523342766   10.01008253627985
C        14.52072552388114   10.55014461109846   10.89039839704607
H        14.55666794509835   10.78715618328098   11.94047019625726
C        13.83497464070247    9.41711781359537   10.49926132383103
C        15.88400732250025   12.64481464962128   10.55165683884867
C        16.98094932120358   12.20741464535845   11.53263852085735
H        17.51501389106179   13.07601161152393   11.91364015695455
H        17.69326243813873   11.55562637901663   11.03109162861392
H        16.56295312401013   11.66717796073416   12.37745979235850
C        14.86594680470427   13.53698484977791   11.27544669715417
H        14.07287338911042   13.82962704230770   10.59076529652934
H        15.35044677558069   14.43680054106826   11.65036973593980
H        14.41360479690466   13.01772238252269   12.11567743201411
C        16.53982766212548   13.47273505289810    9.44324599827658
H        15.79825905307563   13.82328877833721    8.72951639828664
H        17.29294526582251   12.89136626716883    8.91668472278424
H        17.02855031379386   14.34283044892297    9.87827310033223
C        13.16508830594770    8.49202734022254   11.50845779088566
C        13.79218040083993    7.09739136855316   11.37138436005339
H        13.70753248163120    6.75088290007866   10.34583188967813
H        13.29660342071309    6.38609232803335   12.03104732219873
H        14.84753199376009    7.13725928196006   11.63479229386646
C        13.34028512042140    8.94712392921755   12.96121364914288
H        14.39119940337962    8.98339837049652   13.23919169126542
H        12.84403399671054    8.23573448493356   13.61973376812998
H        12.89220179642754    9.92457205119984   13.12590645005713
C        11.65960650335978    8.43015337376750   11.21583683052635
H        11.20791669464731    9.40531256939637   11.38926219817344
H        11.17519651827257    7.70599552597051   11.87091633655122
H        11.48857123997319    8.14877136648280   10.17881458606150
C        15.49564951930868    8.07790576542997    6.56303596719174
C        14.93472262366918    6.81618175910707    6.28220976759168
C        15.84840119356865    5.72082648644363    6.29309507000833
C        17.16825146893613    5.94266921149018    6.63080670787097
H        17.84017750385847    5.10106148491531    6.64930009382611
C        17.69083816769982    7.19485105105714    6.95513335382795
C        16.82456335035785    8.26900078745973    6.89311919677795
H        17.14479430436901    9.27518949179910    7.10781275256811
C        19.15472990769775    7.32813303185691    7.34461224915498
C        19.53247153333730    8.77017677908705    7.69372188076263
H        19.39355819673999    9.42740011163619    6.83861593262143
H        20.58042993658136    8.81299345996031    7.98563902087501
H        18.93380828340747    9.13683012936046    8.52429831420973
C        19.43102303333079    6.45296895072428    8.57521957444286
H        18.78905306257813    6.75615866526062    9.39955364441654
H        20.46881336306593    6.55618088178244    8.88721455041308
H        19.24175638809196    5.40394755793235    8.36482699727718
C        20.03639158716590    6.86993043292478    6.17447218370508
H        19.84761049042507    5.82980494688341    5.92302251430633
H        21.08904579417285    6.97360994044885    6.43137552285156
H        19.83336598790500    7.47527097216673    5.29348971304904
C        15.34252085201421    4.32696620845621    5.93364864171600
C        16.43462846994774    3.25285111125174    5.95662102469407
H        15.99813441970982    2.29543573722267    5.67572562902127
H        16.86351924623733    3.14595896280955    6.95033352495362
H        17.22677231241431    3.48127289581096    5.24719920169865
C        14.25728286223288    3.91889285694871    6.93880648482334
H        13.82184759445986    2.95777448091853    6.66665403558021
H        13.47495557015096    4.67380077883384    6.95554651558979
H        14.68551682213088    3.83815595925124    7.93662264418840
C        14.75581463096243    4.36954324062528    4.51559025768380
H        15.53546628800719    4.61334040052300    3.79621727708994
H        13.98606925820224    5.13308003649840    4.46311111055174
H        14.32312623478246    3.40580384542789    4.24951888471208
C        12.16518993160595   10.14576463126167    3.73760285354791
H        12.97640781745710   10.77406926720533    4.13123565646495
H        11.20583213322576   10.52313710473049    4.09231242988258
C        12.25405234538561   10.04580442046844    2.20985148868127
H        11.26820167208677    9.85490222692490    1.78565286796413
H        12.64626469447541   10.95986423964721    1.77100572501069
C        13.18342824417594    8.84077224141381    1.99531981287361
H        12.73153180769913    8.10838327803214    1.32742926319481
H        14.14062132350223    9.13706831908293    1.57211360952924
C        13.37020696535744    8.27007828352985    3.41202241243119
H        13.29465646203590    7.18477971619037    3.46571643699819
H        14.34061046845445    8.57829540974666    3.82300261208257
C        10.85668618288249    5.14711197028879    4.97697879341229
H        10.07866718788766    4.51695853083031    5.43334760338538
H        11.82476335652940    4.90767890730907    5.41425774787697
C        10.82501826181783    5.00732299518710    3.44555919222891
H        10.30588086345360    4.09757445035125    3.14861788387597
H        11.83377997119925    4.97083680070716    3.03864791495410
C        10.08463556225936    6.27165910556552    2.97939658808897
H        10.76363101073029    6.94595666833956    2.46217379082377
H         9.24587995038689    6.04868120780655    2.32318793712759
C         9.62299782338702    6.90942589747457    4.29361585957250
H         9.59836390121073    7.99781239148506    4.26406543808972
H         8.62964874033381    6.52709543624508    4.57775250529901
C        11.37947977151200    5.23755436968382    9.10691223044797
H        11.28222599408937    5.64909694086139   10.11979320601906
H        12.43391716010764    5.10938772728421    8.86801544332183
C         9.14935626194189    4.51810981345531    8.60993312250010
H         8.44717527200775    4.39777867274203    9.43275479565250
H         8.73446183948993    4.01856063726179    7.73612586686781
C        10.54059788050769    3.96568759971746    8.96099130705845
H        10.53916755470622    3.37352868380866    9.87278434957169
H        10.93002487534329    3.35329531454565    8.14827074156099
C         9.41251989323506    6.01151684856803    8.33128987915656
H         8.93031912244011    6.38026572670783    7.42500161247565
H         9.08377661273823    6.62169346499411    9.18465074017032

