47
CSD_code = INITOO | q = 0 | S = 0 | Stoichiometry = C20H19Cl3N2OPRe | MND = 6
Re        4.34277449871888   13.65886244328727    4.09052161641423
Cl        6.23638656080423   12.58007007079727    3.29440697688356
Cl        2.98602369193708   11.91414834182192    3.48027214769368
Cl        4.67734732855126   12.83317211130502    6.22605308211051
P         2.39820688164698   14.68106182127813    5.08270619910092
N         4.11742211080419   14.62252876833979    2.27222230483193
N         5.45059404952365   15.37547690200589    4.35273614532150
C         3.41206880943926   14.18634559499017    1.22284842482109
H         2.94232768049845   13.21944929958576    1.34545301489461
C         3.28067182129428   14.89858247232130    0.05428565474833
H         2.70110016462944   14.48898947908798   -0.75653796380585
C         3.90737473777630   16.14269276049773   -0.07253830139220
H         3.81343905054631   16.71611024764224   -0.98093400128344
C         4.65142110709223   16.60815527114166    0.98293442047021
H         5.17071603957255   17.55250326407134    0.95372375427942
C         4.74698981088508   15.82698534571298    2.14052531587189
C         5.48094109759181   16.18292652001427    3.29736594469324
C         6.24157942565686   15.97969432470819    5.30437167111346
C         6.59136887673795   15.60672049416934    6.59520652621717
H         6.22520974481951   14.68141141170168    7.01194129011481
C         7.42242453865529   16.46439226998205    7.28936582878951
H         7.72214657887823   16.20772598782824    8.29355497030723
C         7.89007819216791   17.65163904128178    6.72698946116729
H         8.54029801238160   18.28824163895258    7.30707993110631
C         7.54766468645144   18.03624958744591    5.44164700265639
H         7.90914117294244   18.95005934600007    4.99977201379131
C         6.71782397655639   17.18052678816515    4.74355636332283
C         1.14691925562666   13.55739595611823    5.77720598083018
H         1.61406840022022   13.03348874902768    6.61130941054732
H         0.85769631284445   12.82289560547810    5.02848980479350
H         0.28030303161480   14.12291042101744    6.11823280772639
C         2.73219902414239   15.78576311561928    6.49695885047499
H         3.15342767587389   15.16343302472650    7.28656641931410
H         1.80869300747557   16.25323631132511    6.83679709152300
H         3.46326911186403   16.54755824430343    6.23392776219604
C         1.52037922067258   15.68028139187390    3.84919264872301
C         0.78542987567854   15.00850014291593    2.87442634472369
H         0.67274624646849   13.93585423673244    2.94285055849693
C         0.22418280666900   15.70556201042670    1.82189377293152
H        -0.34966614732948   15.17977330625017    1.07348410524442
C         0.40777297995309   17.07535669141659    1.72006664530212
H        -0.02503696721657   17.61957441594629    0.89409526860894
C         1.15360091358323   17.74531753437740    2.67489509781714
H         1.30407196543950   18.81184617688466    2.59272917247133
C         1.71367637556734   17.05226861557073    3.73343366391258
H         2.29918063670913   17.58206660589554    4.47089345512264
O         6.22034562746911   17.29749583995600    3.47862134503708

