113
CSD_code = INIVAD | q = 0 | S = 0 | Stoichiometry = C41H65LaO4S2 | MND = 9
La        0.69152456395533    4.25058246208723    5.65855610001497
S        -0.35823592345624    1.54396484337542    4.96364912288531
S         2.86798843779082    2.20446901949256    6.40627847669665
O         1.53616664206265    3.55286330171141    3.82457173877698
O         0.49264814981055    3.46868443907526    7.63880036119498
O        -1.93719112505550    4.52083670111054    6.18146470278775
O        -0.94660064243869    5.09528289087284    3.56202687541352
C         1.81103301591933    6.42321006950748    6.12064489168142
H         2.21262599008822    6.41849596412328    7.14426677202250
H         2.63532037240724    6.56491783973371    5.40882738963998
C         0.81148752425786    7.47951764473598    5.96843105526224
H         0.67473960045431    7.86603252703680    4.95818293199804
C         0.09109463793014    8.03475915094369    6.95196285177027
H         0.20190002279191    7.72171949721675    7.97825544258259
H        -0.62727052164383    8.81537791116275    6.76299731863954
C         1.54313348139316    2.43459822374904    3.16961597781886
C         0.66657415875617    1.37511984713978    3.50449694996174
C         0.58523002305475    0.19722322987792    2.78486860538224
H        -0.12698695255595   -0.54609302710896    3.10992350108215
C         1.40814050018503   -0.01674077366372    1.69359951279274
C         2.31998994501615    0.99192663326228    1.38115299059380
H         2.98763375661788    0.83102817873485    0.55460195671181
C         2.42220547042701    2.18297623548369    2.07305492737648
C         1.30559379118599   -1.32103009959854    0.91731922860177
C         1.61906449518021   -2.49148689555645    1.86051944087274
H         1.57166526778162   -3.43485976703995    1.32007206131336
H         0.91075393987204   -2.53465776936375    2.68339326632548
H         2.61879629423836   -2.38133938833814    2.27584905213689
C        -0.12054024719143   -1.46805890660071    0.36854789542472
H        -0.35468592243333   -0.63691270772495   -0.29348000316050
H        -0.85246314009977   -1.47966813031029    1.17126586417177
H        -0.21474875645190   -2.39532719794737   -0.19332406101662
C         2.27849689404534   -1.38704682661267   -0.26283065389537
H         2.14917390803117   -2.33217022407840   -0.78699109649355
H         3.31012820100045   -1.33079331736403    0.07642369575848
H         2.09072150630709   -0.58223700821158   -0.96971276585268
C         3.47406460626687    3.22880665983296    1.71941488185330
C         2.78022861553187    4.54210324273739    1.33431024305519
H         2.16068285633912    4.39368288045180    0.45065483579066
H         3.52078310840952    5.30878268468578    1.11409923490177
H         2.15702412900970    4.88465609610907    2.15493884538494
C         4.37080856132123    2.80929427851265    0.54975508547667
H         4.91739636621788    1.89733576648381    0.77869685496274
H         5.09865576852451    3.59627927468450    0.36111581312387
H         3.79382545227161    2.66307105328911   -0.36107193722227
C         4.37314926590258    3.45564495581911    2.94369398356141
H         3.78934611310536    3.80700922284100    3.79186348290779
H         5.13611409460038    4.19792562776007    2.71748793044393
H         4.86473232089376    2.52664612179793    3.22654772875947
C         0.59292989763293    0.52095563409618    6.17335800136438
H         0.27915113100091    0.87725813572960    7.15597870210015
H         0.26060823309398   -0.51151478795102    6.04042584192077
C         2.09783769316724    0.58114554600932    6.02299930128337
H         2.39933110354839    0.35922267748853    4.99764373164440
H         2.55288389340083   -0.14463768116453    6.69986131930114
C         1.31455420554301    2.99931341277910    8.53460314642008
C         2.49173583036772    2.32161346136275    8.15070173433907
C         3.38457070675366    1.77614044165892    9.05120458564267
H         4.26554716512337    1.29128486060053    8.65886061242915
C         3.14435929781694    1.85722970162782   10.41213355749288
C         1.98858439455779    2.52568062755702   10.81165833812922
H         1.79116736540299    2.60876058848989   11.86483493106007
C         1.08289585066139    3.09533077591672    9.93627065596923
C         4.13348201310595    1.24025306855132   11.38958077654495
C         4.25696532495413   -0.26225697281787   11.09858721882757
H         3.28738638404255   -0.74565722342637   11.20145816438047
H         4.95034162123751   -0.72617855401125   11.79746737406563
H         4.62114191050763   -0.43910598419344   10.09037878965447
C         3.70770268138322    1.40782529105128   12.85063497983730
H         3.63941775486030    2.45920053202973   13.11970793430019
H         4.44784854309795    0.94297523954364   13.49945592135404
H         2.74930583293639    0.92833593281228   13.03655968942993
C         5.50063301911800    1.91470981205116   11.20951570775453
H         5.87771392664140    1.77571304852703   10.20026455194466
H         6.22370455427637    1.49514328717103   11.90649945297806
H         5.41825919845782    2.98321446993559   11.39679615807749
C        -0.15711395015143    3.82988172911255   10.43322175447011
C        -0.11653019591963    5.27637718347756    9.92069475267470
H        -0.98890008609884    5.82730081561914   10.27050878083409
H        -0.10153700832324    5.29253237544722    8.83255137076773
H         0.77765839414383    5.77704369474622   10.28805591432872
C        -1.40442447484271    3.11920847048966    9.89051634873044
H        -2.30661245331698    3.62219755082736   10.23570026423250
H        -1.43015115596903    2.08691764308731   10.23668386036169
H        -1.38583730423107    3.12527772143363    8.80502460285688
C        -0.26317712817978    3.87368141386434   11.96112260137236
H         0.58723950015466    4.38968339723940   12.40076245194490
H        -0.33252318193476    2.87309878952656   12.38236229037308
H        -1.16460452300816    4.41670683065017   12.24069219562500
C        -2.55187435786213    5.78191880740678    6.41702959590834
H        -3.12777354920202    6.08508951583940    5.52943797560519
H        -1.76738106137438    6.51714712094192    6.61371172821221
C        -3.48175508866569    5.53468495366871    7.60198076545685
H        -4.27848718601163    6.27166785881297    7.66765391807339
H        -2.90266685098978    5.55154147278756    8.52368120382465
C        -3.99842103838491    4.11876883436306    7.31996112602135
H        -4.05110327198284    3.52285313118027    8.22799451944426
H        -4.98938966809090    4.14350826316695    6.86831635614478
C        -2.96725736696991    3.54620138994129    6.32792524761396
H        -2.50298770154641    2.62212887965515    6.67760742142281
H        -3.43312890998946    3.35590394154243    5.35087463668647
C        -0.63503654235784    6.18725478739519    2.69245558242959
H         0.40220310448794    6.47118584593987    2.88189990597571
H        -1.28567005182301    7.03793846260162    2.93475636032285
C        -0.85394678734187    5.70963595775772    1.24587388901228
H         0.02196334493385    5.88808851167002    0.62741138631496
H        -1.70452519182325    6.22436949696886    0.79830649057736
C        -1.15238550815892    4.21811402290938    1.40951075211212
H        -1.83506108013344    3.83315390223915    0.65590129807574
H        -0.23080973948433    3.63612827644076    1.39225486526277
C        -1.74267365160481    4.18453686859145    2.81386954554978
H        -2.78910749518125    4.52855589458516    2.80205061337601
H        -1.68608893302457    3.20445841361280    3.28970709062588

