98
CSD_code = INIVOQ | q = 0 | S = 0 | Stoichiometry = C33H56NO3S2ScSi2 | MND = 6
Sc        0.02662013790664    0.27394706811106    5.22112863984409
S        -2.54054055241967   -0.71046678159507    4.70169186886056
S         0.80594499449396   -0.52123143758596    2.52729766328385
Si       -0.53290557261982    2.57220822056221    7.36418538560414
H         0.55170774857701    3.22863545065170    6.55129539358582
Si       -1.08284366778873   -0.25677830653323    8.23233507278232
H        -1.12560545518680   -1.58245819476359    7.53407078172033
O        -0.76232931517895    1.54249571747000    4.07471156246048
O         0.74853265412545   -1.46916105314744    5.25578283552642
O         2.04524787708771    1.12360986560936    5.17679102482380
N        -0.38467989176580    0.87716674584416    7.14199197244208
C        -1.91943384014057    1.67102097193946    3.46968647183392
C        -2.91966004562520    0.69779660795060    3.65887807788787
C        -4.18267158855358    0.79456525067193    3.09922900604128
H        -4.91602376990843    0.03126069797169    3.31487259198507
C        -4.48389669232922    1.85953279915261    2.27473961891984
C        -3.48966741106096    2.80693439477824    2.03337311643610
H        -3.74263737647123    3.62228228342730    1.37487073661964
C        -2.22769111364705    2.75078360004813    2.59240832511592
C        -5.83544325491946    2.00385803851897    1.63969131764146
H        -6.27089747190545    2.97164392814363    1.88476633252383
H        -6.50890861000835    1.22330534169502    1.98410734642440
H        -5.75667410829293    1.93978582249946    0.55429215600794
C        -1.16051526658977    3.79091053385112    2.27616551441599
C         0.02525088523941    3.07984851715740    1.60859725616713
H         0.39236309723394    2.27575307612512    2.24084632310934
H         0.83608595190555    3.78307930798935    1.42786894214426
H        -0.28167678534231    2.65373083323074    0.65527731983947
C        -0.70832149789088    4.46824214640014    3.57592841237617
H        -0.35430363990313    3.72789730521457    4.28808803994931
H        -1.54124681993983    5.00350704214209    4.02704869215894
H         0.09050819393289    5.17970798330159    3.37175438794995
C        -1.65186498420261    4.88518736616015    1.32259162503987
H        -0.84123154851133    5.58892985708115    1.14320728477779
H        -2.48564701532766    5.43639444736018    1.75101121706106
H        -1.95198704686498    4.46957244496458    0.36343101652198
C        -2.59421675788225   -2.06576969043491    3.44098963282762
H        -3.04343436706994   -2.90547204617526    3.97171193457350
H        -3.27104992538729   -1.73319123819424    2.65456380949691
C        -1.24522590091973   -2.48933858134596    2.87625661027708
H        -1.39476662778312   -3.44344956682207    2.36091372146133
H        -0.56124132041154   -2.68453924049707    3.70600402004740
C        -0.61960379118261   -1.50486880545058    1.88870229162636
H        -1.33438422301076   -0.74787581204497    1.56327892140114
H        -0.23784837125793   -2.02956596232153    1.01289310999953
C         1.84200906915377   -1.81075417657412    3.20322862531075
C         1.65490287403738   -2.12289301564472    4.56445840037460
C         2.43871418805186   -3.18292944127492    5.09925936882704
C         3.37290334197800   -3.78518928781050    4.27794921638052
H         3.98570206866144   -4.58220021852900    4.66809225551782
C         3.57712718190357   -3.42793746246833    2.94527350444161
C         2.78618578580410   -2.43256328272927    2.40655627455039
H         2.88705699789888   -2.13062818278512    1.37479416868451
C         4.62727163369796   -4.12457487824440    2.13121628466241
H         4.58362187469331   -3.80761239707331    1.09237092743830
H         4.49175773948257   -5.20460718191695    2.17269507560266
H         5.62113378927656   -3.89943510546683    2.51879831661066
C         2.19324487772213   -3.64895530747928    6.52840162984929
C         0.73905382790489   -4.12997229929943    6.63327422819102
H         0.56167368099077   -4.94879336987180    5.93744286965299
H         0.05625257512796   -3.31541797128802    6.40387707716457
H         0.53001209367628   -4.47775765101844    7.64249275170236
C         2.42164525748460   -2.48644497622389    7.50305318838805
H         1.75109229750655   -1.66030882729579    7.27240553927384
H         3.45353668392579   -2.14201411159610    7.44367935543559
H         2.22403125753182   -2.81293245101172    8.52181823002446
C         3.10928144915868   -4.80484669865826    6.94394067668030
H         2.88157539294052   -5.08709251661948    7.96980659002394
H         4.15674208253241   -4.51456717273087    6.90076805210215
H         2.95361212626990   -5.67781936905935    6.31428935123424
C        -0.22949525360400    3.16499911893828    9.14893603583904
H        -1.02094101189602    2.82992034405538    9.80969918251303
H        -0.19775605521423    4.24835499829126    9.19821558306225
H         0.70815741087601    2.78714321047109    9.54205649387716
C        -2.21148434477749    3.30033132439353    6.81844875789444
H        -2.49575874209121    2.93074674846428    5.83717494243165
H        -2.17829085385226    4.38444607999787    6.76906577413999
H        -3.00110270122608    3.02705473012748    7.51172617468488
C        -2.87312620393011    0.12409257315135    8.77003751086728
H        -2.92016448536375    1.03727224646460    9.35465652884173
H        -3.28246215583049   -0.67621465819553    9.37826952182392
H        -3.52022266355380    0.24970943931138    7.90704038459484
C        -0.05032653690863   -0.46695684904910    9.82706076670484
H         1.00666716393943   -0.58795752087938    9.61229732841234
H        -0.37743087882266   -1.33955282651563   10.38281701335725
H        -0.15647701122980    0.39430278163547   10.47771322369752
C         2.89282098982180    1.00314292857409    6.33041022086315
H         3.54468668458501    0.12743846358015    6.19656986067860
H         2.24726754923489    0.86415952871589    7.20382105561144
C         3.71232734342802    2.28583615496724    6.37160948225747
H         3.11846437391920    3.09219644037616    6.80195369679816
H         4.63268112845229    2.17227623256282    6.93900560991592
C         3.95049841332495    2.52990311193307    4.88399883368242
H         4.76414316575531    1.89925361241345    4.52348588205104
H         4.18051896455448    3.56704678341928    4.65308930114320
C         2.61980120110119    2.09004210922618    4.27437282224530
H         1.92207869072116    2.93166453394222    4.19096387058657
H         2.73909975799707    1.62086876308255    3.29123480155155

