53
CSD_code = INIYUZ | q = 0 | S = 0 | Stoichiometry = C6H24N2O16P4Zn | MND = 6
C         2.69473763653934    1.44488051704569    2.14321936622681
C         3.95910890589510    0.64549447837015    1.87557699542354
H         3.68988553960994   -0.19651716469313    1.23256212549395
H         4.61657799325360    1.30529473139952    1.30315141708175
C         4.71107719525158    0.17208074253911    3.11807995211390
H         5.76155079312635    0.00442093001759    2.84324660247571
H         4.67527366472777    0.96224066391884    3.87060176496735
N         4.11216158748230   -1.03239839800479    3.69986494505642
H         4.13114306542176   -1.79603854459099    3.03113802913873
H         2.60007716582959   -0.60753980267125    4.07323014439601
H         4.62537082295525   -1.31882303542090    4.52612883103532
O         3.35678561358054    2.86310317811329   -0.15569252709208
O         1.46444282012618    1.12407393177183   -0.26471434833008
O         1.12033127329782    3.30695141870285    0.98338178814149
H         1.53350044555316    4.16005881138468    0.84103912664964
O         0.83037003480437   -0.61190845953096    1.73313954994865
O         0.14583526174182    1.43097950940966    3.11238416172495
H        -0.63552907098213    1.29504932821350    2.56177921175926
O         1.67204117895743   -0.20692707607762    4.09921712457775
O         2.93776133273549    2.43310251060356    3.10942751853643
H         2.13041051850992    2.95445350344764    3.20319388948931
O         1.15590183107201   -1.76369559907381   -0.71257277789438
H         0.45904049643543   -2.44389034795165   -0.69879448757912
H         1.64421200269347   -1.88767630504297    0.10952819153425
P         2.23518452004007    2.17873146607981    0.49253019640274
P         1.28870027762482    0.41310667334491    2.71938317902059
Zn        0.00235257488898    0.00063770545065   -0.00414466308208
O        -1.46183247383624   -1.11792498385274    0.26450087490189
P        -2.23395551529104   -2.17484506613821   -0.48818031375109
C        -2.69706087540827   -1.44541325454007   -2.13973649989674
C        -3.95758252585572   -0.64079370756408   -1.86964288739020
H        -3.68337175626090    0.20157641706860   -1.22919346590871
H        -4.61535861626013   -1.29722001557756   -1.29370025703917
C        -4.71212248403510   -0.16763961291615   -3.11070689144053
H        -5.76127452965829    0.00328632895572   -2.83303908218491
H        -4.68073718911753   -0.95914317980175   -3.86197198693378
N        -4.11181748175916    1.03425149508571   -3.69634064381336
H        -4.12620920987157    1.79884790567166   -3.02866703296557
H        -2.60344395591792    0.60264006358227   -4.07520982092763
H        -4.62708929370734    1.32101170760564   -4.52118768681999
O        -2.94768843930818   -2.43624487028012   -3.10129545047331
H        -2.14302491602392   -2.96157595068325   -3.19587660301019
P        -1.28944765976866   -0.42147930163426   -2.72618917522827
O        -0.81990417417409    0.60354429681091   -1.74512945709944
O        -1.15456465215108    1.76777331912346    0.69518991808739
H        -0.45697449345691    2.44730208161044    0.69465639846490
H        -1.62776402521785    1.89375647355746   -0.13543440523454
O        -0.15391823192772   -1.44575669755664   -3.12387953472611
H         0.63025927235379   -1.31369285003218   -2.57617568190896
O        -1.67737189020141    0.19761914198445   -4.10507635134866
O        -3.35406239099714   -2.85757305114771    0.16430461274248
O        -1.12009970706208   -3.30443103779425   -0.97833432562249
H        -1.53188826625687   -4.15712101829118   -0.82956955769077

