37
CSD_code = INOCIY | q = 0 | S = 0 | Stoichiometry = C10H14N4O8Zn | MND = 6
Zn        0.00205963707648    9.02807502480878   -0.00066369998286
O        -1.26954156253660   10.46601963202452    0.02097137801396
O        -1.66289052491783   12.40927740436922    1.03509855071859
O         3.49764261466188   10.13754359739436    3.78494502938548
O         0.91956798911419   10.06225933929097   -1.78083748901866
H         1.85384055525323   10.29100175833555   -1.77861777142044
H         0.41353195142003   10.86673408775207   -1.93838628249368
N         0.98061140011679   10.18857936164796    1.35035397542376
N         2.13626471726329    9.93194251816032    2.01025758285601
C        -1.01378747145377   11.40228910710680    0.84318583783302
C         0.27591806709180   11.20710475312579    1.65382638173042
C         0.68849050016015   12.16448817498953    2.71635162242946
H        -0.18845258333517   12.68312426137194    3.10446508426181
H         1.33857146874995   12.92002263135315    2.26166537703795
C         1.43927639109540   11.40517939967993    3.80893084665373
H         1.92954188844530   12.08357481954824    4.50644896454920
H         0.74020856532578   10.78670203693892    4.38101232500720
C         2.47497770761264   10.45916654787592    3.23343361370125
H         2.65773533854497    9.13879488203368    1.65191759560643
O         1.27239269178144    7.58979393827665   -0.02130520012174
O         1.66457933850831    5.64466007554125   -1.03229234069977
O        -3.49541062669555    7.91403411840004   -3.78535809061653
O        -0.92506898538583    7.99575548259565    1.77594231092923
H        -1.86287707740183    7.78240796317142    1.77268199718425
H        -0.43195339404605    7.18373953531999    1.93490243650696
N        -0.97750991085245    7.86649147934323   -1.35146502292689
N        -2.13305015683326    8.12271404613160   -2.01186689170914
C         1.01638821095206    6.65254524425079   -0.84220297657705
C        -0.27367339565430    6.84681453848340   -1.65286282139033
C        -0.68691084226902    5.88750198032798   -2.71336099551029
H         0.18988578303511    5.36815903126861   -3.10088285290965
H        -1.33666629599636    5.13276164114219   -2.25691291184754
C        -1.43808997105471    6.64462207259142   -3.80722411096973
H        -1.92929799034789    5.96479661768240   -4.50269433357832
H        -0.73903541835081    7.26117857847085   -4.38138074572930
C        -2.47269068952519    7.59291415977711   -3.23359313332486
H        -2.65457791955224    8.91623015941584   -1.65448323900178

