35
CSD_code = INOCUK | q = 0 | S = 0 | Stoichiometry = C10H12CdN4O8 | MND = 6
Cd        1.38249033597859    0.00002105874246    3.07369964247792
O         2.41887774190503    0.37749970356959    1.30454082977568
O         2.95247562718999    2.00664794077066   -0.12502367511884
O        -1.05851562018598    4.67629080632593    3.91467651553087
O         2.62459340706801    1.26967769654354    4.77695899971410
N         0.71260416634338    2.07220680627964    2.56728405960692
N        -0.14378621326143    2.70669104821931    3.27486355465285
C         2.36082976290107    1.55398489065842    0.83353112635360
C         1.39113696624005    2.48881877897239    1.57491793164326
C         1.17602068866028    3.91109361677527    1.13494123749705
H         0.41043491121015    3.92406806363881    0.35151783316697
H         2.11314855607233    4.25637340526964    0.69190049209448
C         0.75904429890311    4.75074216932370    2.32432537821145
H         1.61482937826806    4.96974636446891    2.96913728301732
H         0.29094204138309    5.68534777951163    2.02035935220460
C        -0.27525294228459    4.04083150899980    3.26337288320842
H         3.36599536612562    0.95047586546162    5.30428638853997
H         1.85196095077311    1.28241666519752    5.36319743920686
O         0.34580667878719   -0.37788262256915    4.84246912809713
O        -0.18690751627244   -2.00685073171437    6.27252660328526
O         3.82310405320270   -4.67666944438875    2.23195513481086
O         0.13960525456526   -1.26804733351992    1.37005116966926
N         2.05201761546590   -2.07256778457856    3.57937818929933
N         2.90826751016427   -2.70707696810563    2.87167264176698
C         0.40435277412769   -1.55425376697428    5.31369519042678
C         1.37387869567363   -2.48906075246572    4.57206906384222
C         1.58941689435092   -3.91119664123316    5.01228553240790
H         2.35527868214096   -3.92383666150486    5.79545003584437
H         0.65249909268015   -4.25653707922210    5.45572369458672
C         2.00612121358989   -4.75106128693290    3.82295788253726
H         1.15017280456767   -4.97038160385207    3.17846594755554
H         2.47450143444209   -5.68550657642067    4.12699772583233
C         3.03996824391784   -4.04118924483410    2.88338003755633
H        -0.60267221809830   -0.94921950416254    0.84369277246962
H         0.91125936340332   -1.28159616625261    0.78254197823066

