37
CSD_code = INOCOE | q = 0 | S = 0 | Stoichiometry = C10H14N4NiO8 | MND = 6
Ni        1.72284329311920    8.91439371194736    3.79179519246368
N         2.59439649129141   10.01739960031305    5.02589839198264
N         3.74436614170277    9.72570592706820    5.68210170766270
H         4.25874865586190    8.93192028012377    5.30671316687059
O         0.40532297902273   10.25630128805082    3.75759771671199
O        -0.09217512525161   12.19291838517958    4.73912956560640
O         5.07526962417934    9.82728431913145    7.48908752878498
O         2.58954666571136    9.93478750256376    1.73488975418554
H         3.50891933817659   10.18936860062380    1.85417261383443
H         2.06617712026115   10.73896513424548    1.64823462007629
C         0.61671814069026   11.22554999828768    4.56708781013869
C         1.91605925956851   11.05746296723574    5.35185355899608
C         2.36326887798821   11.97053462408901    6.43938093200784
H         1.50416935767805   12.52247736766165    6.82226504791393
H         3.06460924577832   12.70022908056380    6.02005753988357
C         3.04521119695633   11.14133089921924    7.52503265640989
H         2.30522716669718   10.51986887957251    8.03934664860143
H         3.53101591979997   11.77048580911938    8.26992420346564
C         4.06953951396828   10.19298206083781    6.93651614757708
N         0.85083975021780    7.81169516539781    2.55795414041774
N        -0.29914185859246    8.10389714411262    1.90220466223214
H        -0.81284285008330    8.89808613980100    2.27775742747422
O         3.04057472592244    7.57192500569800    3.82543722723793
O         3.53707828502706    5.63541969551555    2.84327374917759
O        -1.62965410101865    8.00415748142548    0.09474270486665
O         0.86184161781062    7.88688538009440    5.84796023336929
H        -0.05274230020815    7.61720055981143    5.72437479665770
H         1.39777199002681    7.09099085172025    5.93359844638759
C         2.82843778587391    6.60290115280119    3.01579966643797
C         1.52889958830984    6.77156672101767    2.23156817482067
C         1.08118117087760    5.85906515579016    1.14375816209045
H         1.93995267447188    5.30677223674789    0.76065615338647
H         0.37938814466338    5.12964193907828    1.56277657206038
C         0.39971869399154    6.68911950244208    0.05846223581798
H         1.14000521562169    7.31052789849874   -0.45547484446114
H        -0.08628232547038    6.06054063167115   -0.68678304106759
C        -0.62426007064041    7.63764090254262    0.64734872992058

