107
CSD_code = INOFAU | q = 0 | S = 0 | Stoichiometry = C46H56P2PtS2 | MND = 4
Pt        5.88144872998333   -0.00029894391041    6.71073818291243
S        -5.01423604024251    2.58922026478461    9.28567759221643
P         6.61082709579307    1.10968922423867    8.55474566570903
C         3.96877483038900    0.45745039587230    7.06912594921272
C         2.80666888685846    0.75462126071141    7.25481257510850
C         1.45560243109897    1.10285025597147    7.47283073517204
C         0.85037618701287    0.88331887936841    8.71440571830448
C        -0.46685333389940    1.22103999278751    8.92444346139854
C        -1.23745588274755    1.78981364651331    7.90441216363447
C        -0.62517243594541    2.00608183797181    6.66470406619039
C         0.69235523439379    1.67274522097388    6.44931771778663
C        -2.62848475055527    2.15612711186906    8.06835376337493
C        -3.35055443300473    2.04059070854089    9.18571887149053
C        -5.59097951037010    1.69490918253114   10.70693832820304
C        -5.17128879790769    0.40039009325089   10.97418178619835
C        -5.65343685997274   -0.25920952286188   12.09055317573416
C        -6.56990439304812    0.34378152132891   12.94093928863558
C        -7.00015880794282    1.63386330323449   12.64473994946903
C        -6.51727669146310    2.30797166417064   11.54189889972365
C        -7.09348689053221   -0.36604965457447   14.15209258628192
C         7.50511714073307    2.61830414238776    7.99994585976450
C         6.75529316952763    3.21714921223483    6.81447352223179
C         7.84821304575398    0.24880908506780    9.60659353717488
C         7.28209362192413   -1.08798647222214   10.06881841718721
C         5.33637277274379    1.73605063172112    9.73493411067998
C         5.84810270159538    2.37721731807365   11.01769433749529
H         1.43241500335354    0.44153779255833    9.51195778876210
H        -0.90646703004404    1.04080096155537    9.89459399947338
H        -1.20324219263844    2.44563789088165    5.86299723503865
H         1.15025167307151    1.85194041522284    5.48568717450864
H        -3.11106389611658    2.56452394263973    7.18926138023461
H        -2.96168545220897    1.66016119702960   10.11615699742043
H        -4.47889709334164   -0.09671091306566   10.31057898884266
H        -5.31562446911135   -1.26560706846874   12.29383227828603
H        -7.71845560604165    2.11614450207706   13.29210649781984
H        -6.84916548195462    3.31057046328056   11.31879602767750
H        -6.78699043898311    0.15666402794904   15.05792522978679
H        -6.72058147004696   -1.38601553890321   14.19865265823932
H        -8.18214766460339   -0.39210432195232   14.13674070735063
H         7.61201414113364    3.34146599182543    8.81212616338797
H         8.50170343938988    2.29751627927550    7.68444950290943
H         6.60028981934615    2.43484738901796    6.05994003097294
H         7.31792905320627    4.03087451205020    6.36073122130511
H         5.78124685605707    3.59601307790302    7.11976007901725
H         8.72168461619343    0.07984943392509    8.97133253014852
H         8.14507596425562    0.87925492917368   10.44794758802224
H         8.03231863800358   -1.66792537670471   10.60286929775393
H         6.95857868588042   -1.65987165622283    9.19681031894727
H         6.42436785087438   -0.94635611643328   10.72415179614147
H         4.73152048152400    2.44592453087066    9.16264928195867
H         4.68215699354341    0.89045493311728    9.96534069105866
H         6.31996329225536    1.64186126384833   11.66512643906032
H         5.01576816430139    2.81798985124845   11.56346049668276
H         6.56750725855107    3.16659390167196   10.80974972229208
S        16.77700937338350   -2.58791318136101    4.13415806196474
P         5.15118606539603   -1.11058013997159    4.86637106568709
C         7.79402280612322   -0.45812531473157    6.35224082769194
C         8.95620130176812   -0.75503981070899    6.16696916645113
C        10.30744543062139   -1.10228185220009    5.94872612839748
C        10.91212579248719   -0.88273241793590    4.70684939520892
C        12.22939372848122   -1.21999657854250    4.49635082513995
C        13.00060506525823   -1.78836105903145    5.51617002708192
C        12.38885695653031   -2.00465909936814    6.75613391242733
C        11.07129420212628   -1.67176816462214    6.97198486498745
C        14.39166714366222   -2.15431434980630    5.35175440358559
C        15.11350413548301   -2.03871308354571    4.23423266439122
C        17.35429386485447   -1.69410162464692    2.71283238737030
C        16.93510185927440   -0.39951564398187    2.44510404123342
C        17.41772273962481    0.25958993612097    1.32864682901498
C        18.33415621574326   -0.34396726078504    0.47861469895519
C        18.76405552382752   -1.63402800592324    0.77540331041221
C        18.28070816985288   -2.30764104221575    1.87834435796942
C        18.85794420655940    0.36516927412638   -0.73285763897806
C         4.25622887675491   -2.61856258001490    5.42185661618460
C         5.00481752269407   -3.21634454925700    6.60867305038291
C         3.91430827069196   -0.24952268411420    3.81412549659507
C         4.48143012250740    1.08645505535958    3.35078126022294
C         6.42534155172592   -1.73842122397620    3.68664858179529
C         5.91283848167608   -2.37764255614416    2.40328787135216
H        10.32957622935573   -0.44134267189437    3.90945329419730
H        12.66865493104509   -1.03963109017917    3.52606036116643
H        12.96739244335580   -2.44376612049772    7.55775101189433
H        10.61383362940333   -1.85110911070488    7.93580169923329
H        14.87450172406590   -2.56286769970721    6.23064543398236
H        14.72448873856084   -1.65832123983205    3.30384088053935
H        16.24270992555802    0.09798913672980    3.10840300745922
H        17.08029395050337    1.26603796959820    1.12498251999269
H        19.48242113381967   -2.11670387029009    0.12840585347213
H        18.61232932154623   -3.31023366703151    2.10187745005189
H        18.55132745936630   -0.15795299192329   -1.63841672956171
H        18.48524230273920    1.38518374905272   -0.77995492567478
H        19.94660890819506    0.39100579107535   -0.71754384249889
H         4.15018482643845   -3.34254444170778    4.61029387637575
H         3.25932215097087   -2.29752714531273    5.73604483872671
H         5.15854770487275   -2.43350807946246    7.36292453271558
H         4.44204136372684   -4.03005922491184    7.06226822709987
H         5.97940871916185   -3.59494035350886    6.30477795590828
H         3.04110817061800   -0.07943595685700    4.44945338703220
H         3.61687044367632   -0.88045516936265    2.97334202857998
H         3.73144562289222    1.66654386280429    2.81657539862137
H         4.80574470037549    1.65877267648396    4.22220423225646
H         5.33879975449043    0.94367088061474    2.69523610719938
H         7.02843259758982   -2.44995957180813    4.25873328242232
H         7.08136375216461   -0.89396742334428    3.45729115147589
H         5.44393021267716   -1.64068097946384    1.75558140856285
H         6.74421424302826   -2.82090596010494    1.85814533016462
H         5.19071747665176   -3.16475999660945    2.61029763868435

