109
CSD_code = INOGUO | q = 0 | S = 0 | Stoichiometry = C44H52Cl2N4O4S2Zn | MND = 4
C         8.42344358360768    3.87167115761005   14.99040998050560
C         9.74897350507678    3.85419676191789   15.41197931920086
H        10.32151999296395    2.94163333601551   15.34999341659771
C        10.30324316591399    5.02159374540786   15.89490366711524
H        11.32625594261895    5.02094772068659   16.23864358039596
C         9.56045159928388    6.19853260740540   15.95140546411600
H        10.01396466596697    7.09394027430303   16.34672715993615
C         8.25533818707214    6.23573500081620   15.50036103080298
H         7.67838039903523    7.14627627076858   15.52434005567429
C         7.69154379205476    5.06785165296742   15.01405191222910
C         6.49619100016454    3.12674184889647   14.18513175912890
C         4.33268633102722    2.68674416938219   13.32580317820065
C         3.42090489078332    1.66849974214015   12.79492563959323
C         3.58689309820414    0.29392004966623   12.99966922623258
H         4.39245141604455   -0.09489594701411   13.60206546018883
C         2.70082947316706   -0.59461682275231   12.44082838288800
H         2.81635144445257   -1.65606693098303   12.59020352511460
C         1.63223891012806   -0.15313775159840   11.65036760205584
C         1.44766907185387    1.21774924023741   11.46804225075228
H         0.62307052327221    1.59253106544293   10.88240110264300
C         2.32941921681215    2.10851819793824   12.04408376032737
H         2.19547265859059    3.17107248143820   11.90685033978621
C        -0.17698424288787   -0.79546602919276   10.21841711871330
H         0.21580248431141   -0.17301781761527    9.40332281144694
H        -0.97301282910055   -0.24043596140197   10.73306674054565
C        -0.71208896761869   -2.11116518296812    9.66316958127299
H         0.12407177684991   -2.66015195149467    9.22640002027607
H        -1.10173970129086   -2.70608428213317   10.49058843954803
C        -1.79775078402394   -1.90367465586234    8.61204048791732
H        -1.40887816241136   -1.27682100351820    7.80609450766408
H        -2.64600156011510   -1.38014970730878    9.05876688913082
C        -2.26741745714535   -3.23634452107995    8.03305028879802
H        -1.41186607190575   -3.75810058534444    7.59837662066321
H        -2.65901750036953   -3.86105206919889    8.83879331238614
C        -3.34230751783891   -3.06029922911398    6.96359753996426
H        -2.95673750168086   -2.42233209978097    6.16478435005755
H        -4.20856727548058   -2.55648707673272    7.39868435161111
C        -3.77832610612663   -4.39919962809129    6.37346269975331
H        -4.16456220511609   -5.03670824027236    7.17226633359375
H        -2.90940971554518   -4.90203028176265    5.94224906075544
C        -4.84894937729908   -4.23706536465988    5.29741364828292
H        -5.72023696915065   -3.73789512291039    5.72758274273686
H        -4.46358263562606   -3.59899170755119    4.49879263381388
C        -5.27110784523502   -5.57965588089938    4.71342664516543
H        -4.41896152621917   -6.08426174297022    4.26310911081868
H        -6.03255565957267   -5.44356439266553    3.94903856736543
H        -5.67651456204364   -6.22322145640666    5.49124545905543
N         7.70944871763014    2.78285162931637   14.53694300974650
N         5.59173792596518    2.25467491659863   13.69448508046276
H         5.84878549845125    1.25790925601359   13.70522725144808
O         0.85957452547632   -1.12327851779458   11.12541990642687
O         4.05402431158828    3.87122597517907   13.42164035786631
S         6.08115707221263    4.80077307210961   14.37873998444493
C         6.52060272175353    2.57237663277480   17.38615207325168
C         5.31477033656341    2.15903001179718   16.82928215745956
H         5.25867631416912    1.21729855938653   16.30544318663670
C         4.20911189012291    2.97158375704344   16.97222080049105
H         3.26959908529395    2.67138325750359   16.53413408860086
C         4.28933625102731    4.17599075767554   17.66723968380281
H         3.41312428269673    4.79958905929221   17.75122781899051
C         5.47248534210007    4.57737773505668   18.25656072387876
H         5.53921068270219    5.49978086812740   18.81083797113623
C         6.58704327083961    3.76684983827029   18.11820248962398
C         8.66708960265700    2.53139818068946   17.94133043284475
C        10.88380999274347    2.78408495062520   18.74031798426049
C        12.23523123857964    2.21546112165603   18.76755614897101
C        12.70893453436858    1.29547205160231   17.82514302431811
H        12.10405437824694    0.97912124146080   16.99027835269818
C        13.97929852005054    0.78626828107022   17.94201806081573
H        14.35710509260796    0.07673917264288   17.22358460143501
C        14.81513934631624    1.15883660462735   19.00223942224649
C        14.35675902554364    2.09849717860698   19.92612914443697
H        14.98270506212224    2.42374681550353   20.74211113464260
C        13.08665938364036    2.62112714034673   19.79663615400176
H        12.72294034363010    3.34722255741321   20.50817889785408
C        16.89686706444370    0.76878846616692   20.12085740976089
H        16.37712962552955    0.57327575833942   21.06835970154295
H        17.25738752191251    1.80638914667342   20.12464071858890
C        18.05944144691984   -0.20330653695391   19.94963264851082
H        18.56148944898525    0.01601687372731   19.00612485991513
H        17.65018748554963   -1.21272230904537   19.87941898312101
C        19.05644721069247   -0.13027954554181   21.10165416286598
H        19.48767310666868    0.87209944245033   21.15082414041622
H        18.53640877025341   -0.31364968741650   22.04486063242242
C        20.17263728611639   -1.15859096927071   20.93284732569712
H        19.73256727107536   -2.15636735892856   20.87038569181751
H        20.69659149115278   -0.97070706988189   19.99318671611688
C        21.17392755089246   -1.12449686888586   22.08453004984906
H        20.64787375417572   -1.29929475266520   23.02607871413705
H        21.62945849576732   -0.13308923073708   22.14063051109981
C        22.26798587815562   -2.17598495775551   21.91578958882486
H        21.80908646682343   -3.16565222487800   21.85410911093538
H        22.79649982980009   -1.99914456091328   20.97605546153269
C        23.26997923218278   -2.15873314973236   23.06740975339271
H        23.73434629156373   -1.17171870657494   23.12693478917780
H        22.74135705019010   -2.33226501681888   24.00756733700992
C        24.35131270318409   -3.21783951469283   22.89200783419106
H        24.90201908224746   -3.05131874510707   21.96870236287225
H        23.90897632946607   -4.21091432495241   22.85089448542705
H        25.05453813952417   -3.18952514043660   23.72102867694547
N         7.72343466455338    1.90648202812910   17.28336095708607
N         9.93816554796570    2.08618381177669   18.01444056023791
H        10.18436625820006    1.27553420022679   17.42992425427590
O        16.01955936345781    0.55679889800036   19.03005693802951
O        10.55316812566753    3.79408979722723   19.34034693902029
S         8.20696728687792    4.00051612039656   18.74270517805925
Cl       10.16417519288946    0.17301477162974   15.64980038820565
Cl        6.65857145426933   -0.46217669386113   14.57590022694616
Zn        8.10249786360073    0.96263406826336   15.46732517643358

