67
CSD_code = INOPIL | q = 1 | S = 0 | Stoichiometry = C24H40P2Rh(1+) | MND = 6
Rh        3.70057142060174    9.13700507675824    9.57240697437408
P         3.70142308226482   10.39522190869915    7.66445579719130
P         1.63647244902613   10.06566161505965    9.88816810640637
C         3.34166668631091    9.24070822424589    6.20397473728984
C         2.21277854511572   11.44556886020653    7.59026680260730
C         1.16969424896205   11.09012321811617    8.45382063912064
C         5.78545938108256    9.28728761073345   10.22220590613680
H         6.11901986718883   10.28802177975409    9.93684711599210
C         5.83557983138434    9.03722493627126   11.70759707207673
H         5.58522344207711    9.96905016793728   12.22235586650107
H         6.86782258465045    8.79477301405922   11.98023078930106
C         5.75886219941767    8.32382321609800    9.23741360674815
H         6.10323888988549    8.62775259382036    8.25287910548264
C         3.60098436692994    7.86979628873185   11.41468069805009
H         2.71569144755436    8.14082454332134   11.98306897769222
C         4.42054106718967    6.20364453160759    9.63469098278184
H         4.04985438494905    5.93018064893779    8.64289270243139
H         4.49110694144396    5.27550268094613   10.21100707176583
C         3.39831546685342    7.09304796958897   10.29462206788960
H         2.36710026533145    6.83337735718996   10.04315644915513
C         4.89239050037531    7.92144176691003   12.19676391394428
H         5.38421246139061    6.95050342018580   12.14086549494447
H         4.66283091312080    8.10302045491428   13.24815187226235
C         5.81846103218594    6.83637305996608    9.49433192803969
H         6.41565855998341    6.65062538525712   10.38680599493973
H         6.33118719803345    6.35333323754117    8.66077715802314
C         4.54524948999888    8.32535918199567    5.98594039557507
H         4.68998494511501    7.67140946676142    6.84200753139584
H         5.45430003647940    8.89706439235751    5.80779276323174
H         4.37229808187724    7.69899859597334    5.11245775719226
C         3.03429258782610    9.98274019703143    4.90712836588140
H         3.88590572580906   10.56603010618883    4.56483643710788
H         2.17121820460493   10.63579209447923    5.00933499833157
H         2.80567817472653    9.25356949424686    4.13165214683770
C         2.13609961282450    8.39531079760816    6.61880220332139
H         1.95373968842232    7.61505884533418    5.88249612584958
H         1.23717217514179    9.00566235648928    6.69556804160802
H         2.32245257099243    7.92070600283213    7.58861643736029
C         5.06270781258016   11.49159698450737    7.11699366938399
H         4.91254049854519   11.84537628218194    6.09965233863862
H         6.00925075393271   10.95608186170964    7.17099892299163
H         5.10673787872663   12.34480200086732    7.79370809883242
C         0.11097134078553    9.14245024659321   10.30689477231584
H        -0.70317639911456    9.80969643947231   10.58047618110622
H         0.30866232480207    8.46433769327589   11.13561248235367
H        -0.18099409092573    8.55347790377483    9.43746408522370
C         0.76427613603946   13.03044255959048    6.50861168914165
H         0.61403301991577   13.80821628556038    5.77596658911632
C         2.01175703195757   12.44521159872097    6.64512509711318
H         2.82354753515611   12.77410412255362    6.01473053349499
C        -0.09277700592615   11.64270808850008    8.27015206808737
H        -0.92146197835601   11.33256246733982    8.88788767986209
C        -0.29670352632349   12.59611841702726    7.28693351186507
H        -1.27914794995517   13.01931858953250    7.14572049745086
C         0.57292761347414   12.32101752380608   11.30227050461612
H         0.75837029732200   13.08640808892048   12.05402626432326
H        -0.30833002769425   11.76523871122322   11.61384014699627
H         0.36333195269121   12.82641234350672   10.36287017429294
C         2.06138456470464   10.77213918758965   12.55929300052284
H         2.10156148375658   11.54065328194680   13.32934382505058
H         3.01497928810000   10.25046364951671   12.55891692214897
H         1.26738242356022   10.07732997842569   12.82697849534043
C         3.02234563643849   12.25351876138744   10.80066699258887
H         2.83825687126223   12.79921808993141    9.87599337113952
H         3.89233824035516   11.60298640539558   10.65740609249961
H         3.25683264247886   12.97642786740815   11.57952262881812
C         1.80195710457878   11.42298947158410   11.20167232983823

