41
CSD_code = INOSAG | q = 0 | S = 0 | Stoichiometry = C16H21BrN2Pt | MND = 6
Pt       12.36812069552462    8.90441581140890    6.86335271107917
Br       11.82822096436709    6.66310603702469    8.07508858670201
N        14.39532898039360    8.11196991274645    6.47979466054344
N        13.44996395868508    9.27864819508683    8.76188293941230
C        10.59101914260251    9.80612957825476    7.38557129011756
H        10.81321608679479   10.74318495351210    7.90546079944534
H        10.04922833733436    9.14284574487245    8.06383910239731
H         9.93720517093593   10.03971609491560    6.54492749438099
C        14.63778575783027    8.66163430271232    8.80280399979394
C        12.95723994495264   10.66266191482761    5.86290203547289
H        13.42999776636672   10.36905229688256    4.92131228260452
H        12.09303540732232   11.29430768753669    5.65820899825088
C        11.42311792463079    8.21801227010494    5.16845121366781
H        11.39042947280360    8.93301365217816    4.34546132870388
H        10.40311453341274    7.90596323858151    5.39813271426284
H        11.97243930998937    7.32653603448898    4.85048209126641
C        15.22697184179571    8.25481480019384    7.51959638429039
C        16.59659393997422    8.02086945979729    7.38334098771684
H        17.26133020008703    8.17454489298456    8.21800134047024
C        14.88061113759459    7.72155573035838    5.31093796005812
H        14.16667502499530    7.61710505460238    4.50484229502119
C        15.26590998387980    8.38388910017475   10.01655332488165
H        16.19393785189000    7.83608097134318   10.03847572441329
C        12.88074824381852    9.65901318088346    9.89559775994787
H        11.92239825769760   10.15274305390055    9.80989482215419
C        17.09978229213647    7.61799264163563    6.16183875470480
H        18.15702800703595    7.43783975387192    6.03779469701360
C        13.44976685481838    9.44000931083045   11.13770332267811
H        12.94330240645782    9.76568227066286   12.03177788930727
C        14.66478814992269    8.77599919533690   11.19782090235248
H        15.13092746887570    8.55803130090348   12.14665258535271
C        16.22147160510562    7.45391153869001    5.10083659395354
H        16.56710835808834    7.13484334007191    4.13081553247179
C        15.24064252353206   11.23945928504902    6.65809609542225
H        15.69122071817104   10.68835470086601    5.84026827068438
C        13.91252444083209   11.32465428166927    6.75387367169611
H        13.49026449575728   11.91499229881202    7.56102245990239
C        16.20028911842953   11.88165803753667    7.60413791782516
H        16.81708787765972   12.61473104036557    7.08280491173037
H        16.87265575845171   11.13691131421084    8.03388473486662
H        15.67269998901940   12.38311572009627    8.41265881296332

