85
CSD_code = INOXUF | q = 1 | S = 0 | Stoichiometry = C36H45AuN3(1+) | MND = 2
Au        4.84004297794973    3.84203603994371    6.44712299647376
C         6.26695480921787    4.97162513445494    5.67407344837515
N         6.13050721361335    5.97129496293471    4.78925062458553
C         7.34876971063814    6.51881677639921    4.49580789314452
H         7.45706768907977    7.33193263317848    3.80886628909041
C         8.26754191275146    5.83648865959985    5.22244726573497
H         9.33028449439635    5.94042290859175    5.29004877479575
N         7.58115466117545    4.89364903370333    5.93640483199507
C         4.88463251325650    6.40044928085605    4.24964567638804
C         4.37089607835148    5.74277930009647    3.13074792637840
C         3.14933305932950    6.17429184365124    2.63030816016241
H         2.72665239171633    5.69027733791901    1.76442336373416
C         2.46791682267405    7.21727488531394    3.22752565728776
H         1.51934938960848    7.53871172075369    2.82570706749148
C         2.99480167944358    7.85235898091520    4.33611355025134
H         2.44975780043324    8.66250297191028    4.79287770131524
C         4.21671936383856    7.46064163778323    4.86626905826325
C         5.10464729257631    4.59809871545350    2.47218725748823
H         6.04633752496237    4.41778634177793    3.00107828797197
C         4.27491531761927    3.31467312092141    2.55336757357305
H         4.04228674626492    3.07826867252359    3.59142402472975
H         4.83097058782617    2.48438902242848    2.12512815762131
H         3.34195785594388    3.41981349854381    2.00692832197951
C         5.44309106017541    4.93891513218028    1.01927355467079
H         6.02321296526313    5.85765050528912    0.96687655779717
H         4.54099768878782    5.07039549570445    0.42879318298923
H         6.02731109959510    4.13660990342928    0.57544040455263
C         4.77752100005940    8.14272093230001    6.09253113385364
H         5.81204546664073    7.81805910500733    6.24633800129447
C         3.96712955840720    7.73052508569038    7.32479573297596
H         3.99756309673609    6.64924334998208    7.45782034003509
H         2.92907026800194    8.03441494085946    7.21878824842254
H         4.37538852102705    8.20224188657333    8.21520643491256
C         4.79369565833269    9.66408194138111    5.93512767216125
H         5.32032769030473   10.11597903588501    6.77215210691665
H         3.78673588790705   10.06997116985089    5.91292263011459
H         5.30010509528085    9.94855716067601    5.01555764441938
C         8.16327273326253    3.95285839449588    6.83272903150940
C         8.20453522178054    4.25538992672998    8.19500727957446
C         8.76806536238630    3.31710971107148    9.04994401493742
H         8.82058002094894    3.52261225180313   10.10720268577454
C         9.26367715327403    2.12283465361861    8.56319064062550
H         9.69714217409628    1.40489359088240    9.24236657804227
C         9.20846219025711    1.84279706907777    7.21100416697139
H         9.59568552147942    0.90497623383458    6.84697734208901
C         8.66287165773049    2.75477973523623    6.31750225286857
C         7.65944435399514    5.55447149642169    8.74084550051450
H         7.26915226676705    6.15992350995971    7.91627452498527
C         6.50197930646558    5.28500474445901    9.70531740428251
H         6.08224432182157    6.22510659785467   10.05446910618993
H         6.83904629373422    4.71883162565967   10.56903310111805
H         5.71621375987676    4.71839559012585    9.20588582952701
C         8.76601608644700    6.35825593749109    9.42718944529468
H         8.37866122939344    7.31989947666772    9.75461011691761
H         9.59207633639308    6.53458981567417    8.74176576747708
H         9.14965691932540    5.83160080606973   10.29623953330152
C         8.58203676129715    2.43397900087657    4.84309801352740
H         8.29975603982164    3.33685145162552    4.29140523972886
C         7.49675572518909    1.37946983811653    4.60708345436017
H         6.53037426964471    1.73990902267042    4.95935681113175
H         7.73482633954356    0.46093466137374    5.13712265993209
H         7.41842222935316    1.15521161637958    3.54619935243325
C         9.92821386479982    1.96181215585758    4.29148198047207
H        10.71323325964214    2.67391748241863    4.53555273126247
H         9.87132234610375    1.86939392177704    3.20967741161686
H        10.20408546824774    0.99301360112502    4.69718349699610
N         3.47019453759437    2.73396368445061    7.22201627559573
C         2.71402191862898    2.04366467870165    7.75293494115157
C         1.80234187617340    1.21437481815239    8.39528084515276
C         1.91142459163045    1.03778563371387    9.78995416727228
C         0.99667169183388    0.20566515505568   10.41068032810596
H         1.05874768516188    0.05351211039135   11.47716603782543
C         0.00660857533788   -0.43137688029885    9.67853894822932
H        -0.69674968075719   -1.07685245665162   10.18133981450009
C        -0.08903181212168   -0.24921094357551    8.30771477093012
H        -0.86455610660384   -0.75255292034788    7.75132123413396
C         0.80104857889217    0.57271393531699    7.63869963576165
C         2.98638685204367    1.73962723587362   10.55518963837022
H         2.95589673263370    1.45858014888063   11.60405176863402
H         2.86338851174984    2.82044818912818   10.48288338602194
H         3.96971396412042    1.49203918217492   10.15548395956639
C         0.71647465390986    0.79152089524513    6.16309488819271
H         0.47716514681855    1.83283916185404    5.94607877532797
H        -0.05403212660973    0.16296223072431    5.72572800252056
H         1.66778224732075    0.56482309744013    5.68254955526382

