83
CSD_code = INOXOZ | q = 1 | S = 0 | Stoichiometry = C35H43AuN3O(1+) | MND = 2
Au        0.06474576348151    2.36246041148809    3.30962852502472
C         1.08389569170537    3.73987380600472    2.32334820688543
N         1.18360312035961    3.87695760588919    0.99186666040635
C         1.96084860695045    4.95775266912874    0.67966282841358
H         2.16498605115245    5.23930965248451   -0.33216773866392
C         2.35428098219629    5.50661624597622    1.85512980597469
H         2.96653471162510    6.35868964751563    2.06447392214175
N         1.80442501932938    4.74368558984628    2.84764952145221
C         1.96722566944238    4.96546710326852    4.24466656982705
C         1.06891702327603    5.80851597176023    4.90135036495886
C         1.23510803779081    5.99424205596224    6.26734604661140
H         0.55572171776405    6.63585371980739    6.80521050722456
C         2.26198079776515    5.36745112227520    6.94718170348579
H         2.37789184644007    5.52541236075049    8.00842521373331
C         3.14208892683091    4.54073739027324    6.27553188938275
H         3.93909862991452    4.05944348737152    6.81934116164653
C         3.01239072120532    4.32248419967502    4.91029868417974
C        -0.06471324704074    6.48590098824247    4.16736322981683
H         0.03781152741080    6.30174096694474    3.09279425172129
C        -1.40387921670907    5.89580747601010    4.61679809559397
H        -1.42905776782781    4.82269619797651    4.42840929983629
H        -2.21962872287368    6.36326414934249    4.07086686292510
H        -1.56066712082488    6.06265569349273    5.67905125469521
C        -0.03583565547429    8.00054603537433    4.38039540377777
H         0.93449336436073    8.40701934740166    4.10417685464139
H        -0.23155757874982    8.25592632057002    5.41758478895887
H        -0.79604651576159    8.47570903166857    3.76527802220549
C         3.97472708534625    3.41021873042887    4.18659594225866
H         3.73208480685506    3.39957312886698    3.11891882398084
C         3.84012598196690    1.97723566513866    4.70694657006257
H         2.81613228920432    1.62441475940499    4.58846776942450
H         4.10374559623563    1.92035056441110    5.75929925617712
H         4.50085048720754    1.31606628153044    4.15184067505164
C         5.41285752653017    3.91239912144366    4.33144322159263
H         5.49770798191768    4.93753405062773    3.97745630883727
H         6.08459011086406    3.28913416016126    3.74639765349722
H         5.73591484265842    3.88076074310729    5.36788050630929
C         0.56932223682777    3.00479203437104    0.04875101629599
C         1.30254875208116    1.92132080776254   -0.43933144694884
C         0.67958164473855    1.07276265106602   -1.34465729162147
H         1.21576772858261    0.22315287274796   -1.73571352771037
C        -0.62038507793044    1.30391578858435   -1.75244449399316
H        -1.08724985192923    0.63643489575679   -2.46032519356144
C        -1.32524163490214    2.38518807528061   -1.25955719766796
H        -2.33829317121976    2.55352205907446   -1.58830293377226
C        -0.74531299707546    3.25677556138504   -0.34706595155803
C         2.71730008845460    1.65181221390700    0.01750265736139
H         3.07414825683398    2.49955223940204    0.61167838787968
C         2.74382906399783    0.40905710561713    0.91145194375735
H         2.09827374702012    0.54898315832903    1.77814113768145
H         3.75649017975543    0.22108648354275    1.25945429935571
H         2.40006660352999   -0.46453458849577    0.36403970401522
C         3.66780017089621    1.49065160369018   -1.17021942494640
H         3.59426339088639    2.34608940521034   -1.83810225935524
H         3.44215801320662    0.59221482808090   -1.73696415385358
H         4.69309651842872    1.41756322622061   -0.81576237453484
C        -1.52794247610594    4.43143565472729    0.19133651748129
H        -0.89606541393764    5.00477562200733    0.87768856652279
C        -2.74532026655848    3.94375042148385    0.98027882355886
H        -2.43434422956867    3.28102034189591    1.78744488332598
H        -3.43371016739088    3.40281427202623    0.33716777768382
H        -3.27315184494156    4.79077352656221    1.41147395839311
C        -1.95115222401870    5.36626738934079   -0.94376792291364
H        -1.08288005323775    5.70342569662523   -1.50567983192338
H        -2.45869501514023    6.23785888546061   -0.53787294740373
H        -2.62885005687896    4.86610405837395   -1.62951651586207
N        -0.94741780915266    1.03238745769658    4.26811859960481
C        -1.61317658976719    0.26473954562562    4.81470921129195
C        -2.41020763234606   -0.66056443858477    5.47318690414307
C        -3.15203651866145   -0.27691877691290    6.59882924585130
H        -3.09471479662263    0.74136677319006    6.95247509266078
C        -3.94897942229882   -1.18956076447137    7.25017660173777
H        -4.51073170782137   -0.87159798386326    8.11343241803188
O        -4.76717575938807   -3.47313033551947    7.34783100986313
C        -4.02633474312320   -2.51207326094064    6.79414312094368
C        -3.27746410343214   -2.89116403631720    5.66534076796674
H        -3.34956678504840   -3.91347859222821    5.33110066749197
C        -2.48282219590466   -1.98758222968307    5.01242783767684
H        -1.91122583697777   -2.28388478650766    4.14660542183793
C        -5.55764719445889   -3.18990924824838    8.48577011686689
H        -4.94007995744016   -2.87355346397548    9.33046172669633
H        -6.05612613805438   -4.12480355459769    8.73357579908183
H        -6.30834381684302   -2.42554504691672    8.26838058864905

