78
CSD_code = INOYOA | q = 1 | S = 0 | Stoichiometry = C33H40AuN4(1+) | MND = 2
Au        6.37030954266774    6.25052349434967    3.53792440318684
C         6.14373913676451    7.84008181767158    4.71318554780500
N         5.81408203514507    9.08304980561523    4.33133731986210
C         5.75167929355143    9.91263807650597    5.41631737574496
H         5.50431622938988   10.94976052914098    5.32681454643039
C         6.05094899775533    9.15740161886653    6.50186146698204
H         6.11394424949896    9.40987511279180    7.53968907913628
N         6.28854569604425    7.89048236953682    6.04574702691326
C         5.57109834844587    9.46910662984090    2.98213502313044
C         4.25647150739092    9.47418743055553    2.51062820403226
C         4.04473229083829    9.83368570468808    1.18634775053557
H         3.04310159977504    9.84001405669967    0.78834481477061
C         5.10304499910720   10.18789270728164    0.37102150859020
H         4.91909523410182   10.47135419042687   -0.65374709651245
C         6.39483484823213   10.18204360108424    0.86101661206723
H         7.20962363769127   10.46368869470935    0.21349698085835
C         6.65583483883870    9.81879820937094    2.17588302765098
C         3.10090109759591    9.06051567765738    3.39248419323623
H         3.43328420215741    9.03745166384087    4.43564758832238
C         1.93365448578767   10.04459975912752    3.30495610187079
H         1.18847024142579    9.79988033946856    4.05781165857090
H         1.45279403005260   10.00420801743175    2.33218490801369
H         2.27705569911070   11.06171088327945    3.47843882000172
C         2.65060451152396    7.64730447726922    3.00988044663243
H         1.81975032479105    7.33620318460073    3.63800827115057
H         3.47018284422502    6.93984654736971    3.14046448985051
H         2.32924342410868    7.61831877431443    1.97176910694893
C         8.07367996027052    9.80694394992044    2.69725540352442
H         8.07216404219522    9.49925399636194    3.74803554279699
C         8.68898507493749   11.20579530534003    2.62088463794572
H         8.08084885257021   11.92137220344607    3.16977413196002
H         8.76691409268897   11.54247003809477    1.59126818999359
H         9.68622177386342   11.19760967695472    3.05361346334437
C         8.91852619758784    8.79473323867130    1.92002918235781
H         8.46798480902055    7.80352534006878    1.97523403742167
H         9.91999345032379    8.74514369473401    2.33992688056303
H         9.00010491960868    9.07718002861725    0.87442270624049
C         6.64050535794614    6.77429188840385    6.85747592118247
C         7.98617984130093    6.56793088849661    7.16958310169841
C         8.30889424420813    5.46217938098801    7.94468610984446
H         9.33878311417193    5.26912372495261    8.19728189562685
C         7.32468526467116    4.60568064622868    8.40098894208044
H         7.59349648413014    3.75491520717024    9.00784262181468
C         5.99909986353311    4.83353332050613    8.08551529910646
H         5.24233088342780    4.15815306468555    8.45104634838724
C         5.63009247919035    5.92128499104061    7.30464153763449
C         9.06661974670781    7.48860095041643    6.65076333469352
H         8.60556727444207    8.40205839515939    6.26052018493744
C        10.04213489688106    7.90245026762163    7.75342927409137
H         9.50390403532391    8.29633122996280    8.61232514633123
H        10.71090200452637    8.67518667018558    7.38246095642537
H        10.64867820350059    7.06367258050043    8.08164897080118
C         9.80783094379962    6.80490999527688    5.49781321450568
H        10.58646091721961    7.45895349190881    5.11353578423827
H         9.11621813694850    6.57251758951818    4.68726090792297
H        10.26875104710075    5.88048778129376    5.83655210689359
C         4.17839515370399    6.15435212614517    6.95753884258083
H         4.08991218570733    7.06588909385589    6.35738795840806
C         3.34215561860079    6.34647211928101    8.22439729237889
H         3.73900059924737    7.16247175904616    8.82421081481529
H         3.33954440910779    5.44596428052639    8.83149433576381
H         2.31441461238347    6.58174354761763    7.95940950060653
C         3.64037930783045    4.99275791422717    6.11858336882714
H         4.24274881556405    4.86423614244136    5.21904627678689
H         2.61298972109844    5.19060322081013    5.82357892598252
H         3.66188107941905    4.06412310899145    6.68163650506203
N         6.59814299868188    4.58859619762302    2.30544666071216
C         5.57074741378618    4.11599644586639    1.59894243151541
H         4.63267400768503    4.63963897919373    1.70349317367099
C         5.67023500080867    3.01752284963238    0.76832154939914
H         4.81313585504504    2.66701131551673    0.21582445045201
C         6.90349394028742    2.37333100685232    0.66107341378083
C         7.98007854516304    2.86839098834866    1.39835750918638
H         8.95005046667046    2.40064317642968    1.34271891142260
C         7.77603676969091    3.97204043578719    2.20241483210841
H         8.58584950589466    4.37986514468340    2.78807152392722
C         7.05935919904420    1.23910819658517   -0.17828959625913
N         7.18507353649347    0.32472904052484   -0.85322369126958

