79
CSD_code = INOYAM | q = 1 | S = 0 | Stoichiometry = C34H40AuBrN3(1+) | MND = 2
Au        3.28419954141657    2.82316859686792   14.20203346711182
C         3.53214555377358    4.19451078086152   15.60617627699536
N         3.86834222866352    5.48286675600206   15.43927244704967
C         3.93347961008898    6.11929117889912   16.64752864515568
H         4.18836967931451    7.15502774734995   16.73133245182059
C         3.62732219759857    5.19537478880051   17.59139968435638
H         3.56305117722645    5.27234133540174   18.65662098138602
N         3.38476383860153    4.02426007787922   16.92949709372250
C         4.12939852875848    6.08737864746022   14.17648669697772
C         3.06526560911139    6.63386879753575   13.45720919584424
C         3.34451278245089    7.20788191873944   12.22384636530779
H         2.54511750579653    7.64006156345678   11.64353007269179
C         4.63498739949828    7.23380866596127   11.73072885581155
H         4.83376425634338    7.68515016039815   10.77090994019667
C         5.67294162468345    6.68644680263049   12.46056766747463
H         6.67436973375381    6.71282723540029   12.06203538338155
C         5.44167900868241    6.10470623710940   13.69996695225679
C         1.64994513437166    6.60511460825531   13.98485545027685
H         1.64374814955171    6.15494319407939   14.98313801892506
C         1.08747452340070    8.02253861740130   14.11061814978758
H         1.73229530985207    8.63574453554870   14.73626804706161
H         0.09863262915383    7.99135629035278   14.56135846979025
H         1.00280255029692    8.49777782606228   13.13775575841551
C         0.76480048144522    5.74323390043834   13.08135717014296
H         1.16571591460097    4.73232143573770   13.00930145079116
H         0.70778590726284    6.16295202422603   12.08095468772743
H        -0.24181558217890    5.68906822319857   13.48848787164533
C         6.57942377862895    5.49603018208409   14.48587204514004
H         6.21408983856529    5.17993205780115   15.46861884876954
C         7.69894829693462    6.51312042956298   14.71529021258018
H         7.30891555693676    7.40960697929736   15.19225935373604
H         8.16814967997385    6.80000636898112   13.77888372398901
H         8.46260277675563    6.08467463015133   15.35968368184301
C         7.10701280500802    4.25372760084511   13.76343138216943
H         6.30893918894421    3.52370206763942   13.63038968606808
H         7.90372824396225    3.79513433754385   14.34377374199030
H         7.50098349586972    4.51480542242143   12.78506297292598
C         3.03088604437069    2.78745596890748   17.54070274379217
C         4.04835298381629    1.90993578816585   17.92002839166949
C         3.67974882109864    0.70209985477025   18.49770675013248
H         4.44122648655245    0.00124286099621   18.80002637457612
C         2.34842929419943    0.38628584243886   18.69031606596941
H         2.08055598856393   -0.55651581180904   19.14182022046404
C         1.35826857420871    1.27101618937075   18.30786063727721
H         0.32375627121889    1.01037212200897   18.46404084806673
C         1.67943255623090    2.49058073881577   17.72667234521748
C         5.50616423722306    2.23917401328389   17.69897619104005
H         5.59353677606156    3.25916400827256   17.31050682031352
C         6.29115093457666    2.17510504187905   19.01055800201322
H         5.84235802214531    2.82625622853833   19.75743387860071
H         7.31660729949144    2.49611133874849   18.84507528319952
H         6.31239253705425    1.16403952969778   19.40632532515759
C         6.10428037847301    1.29152626917547   16.65616325418231
H         5.55332424655645    1.36096863774351   15.71838644769030
H         6.06499483328365    0.26262374529481   17.00286046029380
H         7.14295050047700    1.55149650208511   16.46824643416740
C         0.58954294323785    3.44648598432854   17.30123160079243
H         1.04254937386719    4.37509997741376   16.93832567366985
C        -0.31862543172447    3.80402454154708   18.47950065185846
H         0.26639913905063    4.19851493026989   19.30728515298808
H        -0.86617554125268    2.93450811174098   18.83102487772454
H        -1.03942079796568    4.55936642586106   18.17629709750757
C        -0.22037582698586    2.84224873237523   16.15130186262597
H        -0.98499457801589    3.54303428323413   15.82551101312837
H        -0.70784730252668    1.92279440549091   16.46366420841631
H         0.42923499958512    2.61816332908815   15.30519560991961
N         3.01162805379944    1.47759290282974   12.85138567450138
C         2.75685226481555    0.64176141759409   12.10072616804238
C         2.44327786299093   -0.36296658527173   11.18634765020413
C         1.15926310240750   -0.41058930874974   10.62400760897392
H         0.42383802168873    0.32967412533481   10.89901976886666
C         0.84492656152573   -1.40411792368494    9.72339953773608
H        -0.14012093214021   -1.45204194260607    9.28648541337704
C         1.80471819305241   -2.35184098687603    9.37913374037647
Br        1.36676567246622   -3.71468988094262    8.14286093279645
C         3.08158437542742   -2.31148919778201    9.93248225489400
H         3.81222507779950   -3.05450307796968    9.65379213381678
C         3.40432769061632   -1.32113360499700   10.83380096079013
H         4.39102133747892   -1.27879754918405   11.26851103181742

