53
CSD_code = INOZOC | q = 0 | S = 0 | Stoichiometry = C27H21ClNOPPd | MND = 4
Pd        7.53619073544405    3.33799702600479    0.44857519766641
P         8.87613672705518    5.08487709941085    0.39611202127944
Cl        8.93880555391054    2.28075028684051   -0.99052264436062
C         5.05923565999271    3.18691563766726    1.84583888707281
C         6.14090110207273    4.09178794771314    1.68742818573448
C         3.92213453381591    3.46269770707327    2.64580517251594
C         6.02892841726966    5.28531812174205    2.38134821306175
H         6.82303678443694    6.01994100849465    2.31724071877492
C         4.91771554896473    5.58406079945564    3.17861209780210
H         4.88482071095453    6.53220040202163    3.69639990334129
C         3.87873247125629    4.69969904468649    3.31318366316384
H         3.02203811867109    4.93284916245555    3.92752085346635
C         4.17184269139141    1.07904191571850    1.27766917009598
H         4.32824653870454    0.16716684431527    0.72205526411257
C         2.90245381521875    2.49212918004753    2.73219199108663
H         2.03129202075638    2.69224500158181    3.33638459734595
C         3.03681737511802    1.31246072266295    2.04800622537725
H         2.27683253322198    0.54895768382877    2.09165382742838
N         5.13808805126657    1.98596025223501    1.18710953165383
O         6.18242892990812    1.73500213495370    0.46359248351000
C        10.29573042050319    5.17300389026704   -0.73511088449444
C        10.30678837922096    5.96931208101973   -1.87285814618077
H         9.45261762898528    6.58792342021086   -2.11151729403600
C        12.48927985366293    4.35899022813611   -1.27845499265915
H        13.33401773005614    3.72443633672284   -1.05545262209610
C        12.50371208322303    5.16307969622538   -2.40821610260808
H        13.36270543079584    5.15826204865628   -3.06294643339137
C        11.41447447997715    5.96390679305251   -2.70366993266143
H        11.42264560860963    6.58432642432748   -3.58805779465758
C         9.68043623787877    5.45327404576997    1.98552825313196
C         9.96293631582381    4.84871025866685    4.29613851081235
H         9.71644409274994    4.21514497095975    5.13521185375305
C         9.36280158612026    4.63827895751440    3.06794299708077
H         8.64543237919762    3.82727026168474    2.92124862198227
C        10.88825758547722    5.86945162049586    4.44602271945207
H        11.35668685332304    6.03664912160819    5.40462278888073
C        10.63629097418061    6.45411246008325    2.13146208744371
H        10.92723124914792    7.04923950816691    1.27656864391088
C        11.22969206551134    6.66439692187882    3.36310631337555
H        11.96779387376514    7.44474652860666    3.47803061675090
C        11.38954377650371    4.36130007826378   -0.44433265155213
H        11.35570382216716    3.72358929150685    0.42926773892777
C         7.87350744199689    6.52442230748852   -0.10093892400408
C         6.82925751129752    6.22052773530090   -0.97445029179585
H         6.68292238689625    5.17751419085639   -1.27879407372136
C         8.06548801382212    7.83548273749310    0.31274658090732
H         8.85844075087876    8.07591802375257    1.00550924238487
C         5.99799643193265    7.22032750768077   -1.44136186851438
H         5.19386265299193    6.98455261585076   -2.12245483737073
C         7.22256951132584    8.83274992453119   -0.14952592828237
H         7.36840741595243    9.85157650449814    0.17842953171222
C         6.19553088051052    8.52915222132717   -1.02704615477379
H         5.54431625608236    9.31231330848416   -1.38595292784203

