75
CSD_code = INOZER | q = 0 | S = 0 | Stoichiometry = C36H32F2N2PtSi2 | MND = 4
Pt        7.05145829145786    0.80794125053598   12.65438314463072
Si       -0.44821219517450   -0.66185302783903    9.93150512267971
Si       14.94059783185039   -0.76157675735938   13.45818432842876
F        -0.32228112146390    2.47855184198134   12.98194546583624
F        13.82220529740500    2.77863162848861   15.39718408233893
N         5.95183719150318   -0.47640116249660   11.54532116403085
N         8.50259749114361   -0.47767184433754   12.08320500227387
C        -0.70213905547227    1.19642942501587    9.61669580296525
H        -0.51989688681289    1.77201591049101   10.51809521548398
H        -1.71979221344949    1.40403783496649    9.29818041250171
H        -0.03296055328873    1.56712868032465    8.84559718380947
C        -1.34384673004597   -1.23905428095018   11.50863863118816
H        -1.08572263702979   -2.26250591543900   11.76498001056166
H        -2.42198919339265   -1.19175182350938   11.38513294650407
H        -1.08389131224015   -0.60947700822952   12.35397810359488
C        -0.96613860650636   -1.70090704587594    8.41841956158833
H        -0.41850359005083   -1.40249710194738    7.52932554417985
H        -2.02484721649612   -1.58429547577305    8.20578547324138
H        -0.77861424093757   -2.75832844857381    8.57992430156491
C         1.37721463531376   -0.95921958493937   10.17972338137481
C         2.56312948457561   -1.13713803084030   10.33847519120367
C         4.65205956211177   -0.38305170634945   11.30664935005279
H         4.14378805799262    0.46655592428763   11.74262029931196
C         3.94794196121807   -1.31224401098161   10.54212168388987
C         4.65854999030474   -2.39182974976224   10.00325423962875
H         4.14977175851095   -3.13369622512764    9.40696292789391
C         6.01135014383132   -2.48254895089099   10.24894376186198
H         6.57429619288071   -3.30538408013992    9.83871705581442
C         6.64855852051581   -1.51160248893251   11.02589289147595
C         8.07241142522627   -1.51892357953612   11.33668222052642
C         8.96238597244425   -2.51010157091089   10.91465604967796
H         8.61118801466489   -3.33762861378917   10.31955307738484
C        10.29387837568771   -2.43694064448142   11.26247003729046
H        10.99405765176179   -3.19567895578969   10.94807800618223
C        10.72743118263516   -1.35495703625871   12.03825073192621
C         9.78240252221014   -0.40219420473599   12.41601952561322
H        10.07317279288138    0.45218188123948   13.01223345380126
C        12.06652428265154   -1.19881218593339   12.45319223111027
C        13.20096572173036   -1.03392669045166   12.83927560786116
C        14.87731263369551   -0.75611346930173   15.35976879796848
H        14.35621782090151    0.12208454964292   15.72710812166446
H        15.87708422825475   -0.74294014749403   15.78426067351134
H        14.36549345815909   -1.63245139709543   15.74691534498828
C        15.54707207077598    0.90379703676185   12.76688379099529
H        15.39630598778932    0.97191255843225   11.69335353863569
H        16.60641968360563    1.04511140382220   12.96118128355443
H        15.01828559770244    1.73061649134489   13.22990013235294
C        15.98829575198071   -2.21293584688110   12.80037880998647
H        15.60673901369106   -3.16714313791366   13.15153551060776
H        17.02065223554658   -2.13208205253022   13.12811730453415
H        15.99017860113597   -2.23955284734839   11.71469266836486
C         5.52829754903486    1.92613922266990   13.15694548560178
C         4.45005483585078    2.44683335045935   13.36435342595642
C         3.19924653475904    3.06148891969371   13.60974291627429
C         2.02313615306651    2.45593626374276   13.15831641154964
H         2.04356785732810    1.52165417175126   12.61661117673598
C         0.81837534091750    3.07175248237317   13.41936919277117
C         0.72580531177010    4.26813806948245   14.10654437562195
H        -0.23958836498274    4.71349569983347   14.28667984771484
C         1.89778185903688    4.86269470088696   14.54836968146917
H         1.84813588338881    5.79715458386131   15.08744852626501
C         3.12137550896719    4.27047220126269   14.30650637188630
H         4.03412964923422    4.73130564702839   14.65212868182279
C         8.25855214385998    1.95737212057921   13.67717732959034
C         9.18318320630896    2.50712760979965   14.24269212966276
C        10.25265359528354    3.16046198188219   14.90017916410039
C        11.54587900793917    2.63546895827261   14.82278379386340
H        11.75595440523786    1.73302477048118   14.26738129074983
C        12.56725881655906    3.29198063698855   15.47446095873557
C        12.36534853810141    4.45004905294752   16.20248015042845
H        13.19607430336705    4.92852604365247   16.69618729760155
C        11.07953036542853    4.96375968774423   16.27316931663010
H        10.89939072855102    5.86723387647200   16.83667032736482
C        10.03328284081894    4.33092583118281   15.63182622237704
H         9.03187804724537    4.72982480093578   15.68642672694300

