58
CSD_code = INUBAU | q = 0 | S = 0 | Stoichiometry = C15H36Br2N4Ni | MND = 6
Ni       -2.53911617993964    3.56419296247798    6.99010574699056
Br       -1.54359643018961    4.68225323301080    8.62152173063649
Br       -0.69532525373336    2.40184029219712    6.52583060288386
N        -3.79030864728024    2.45925083024786    5.82256836949196
N        -4.53452998417814    4.05617100362637    7.34226159573178
N        -3.84042730304693    1.93785818422551    8.08287265611801
N        -1.93815126977995    5.29228895432070    5.42122581346047
H        -1.89768942475152    5.03507882892183    4.43438233255805
H        -0.96560325555968    5.29711808172950    5.74454099740617
C        -4.77638057280932    3.50029126257358    6.01791760985098
H        -5.82043239746842    3.11081912550023    5.93857879679249
H        -4.64455336776936    4.28013780285535    5.26135724449970
C        -4.79527491782451    3.00371591904244    8.31907471836922
H        -5.84793331062748    2.64023123544378    8.22730420980345
H        -4.64112750299136    3.39841765702294    9.32465425137956
C        -4.06327295058023    1.38125138241314    6.76162216907452
H        -3.35713399174985    0.56400785863470    6.58700708216528
H        -5.10364360851881    0.99962402566786    6.64664205502271
C        -3.57683677961596    2.04009709843526    4.44697256684074
H        -2.70387681312916    1.37929775538879    4.43731560192861
H        -3.32128654015173    2.93231133995174    3.86596916211116
C        -4.75869535490411    1.33121786475250    3.77768849197847
H        -5.63791801140549    1.98101890403431    3.78591533091953
H        -5.00512899626878    0.42043033064666    4.32755722882553
C        -4.41266230029167    0.96832778025312    2.33930924795175
H        -4.18942349406286    1.86223804023791    1.76110566885056
H        -5.24462527633977    0.45262200045619    1.86635714449263
H        -3.54241216604392    0.31705155176051    2.31163755708693
C        -5.33576901147596    5.25529339396901    7.56357070520229
H        -6.40844969908226    4.99358328623413    7.53419119774095
H        -5.13646081169299    5.93392064002840    6.72862394003620
C        -5.01645975003797    5.99035187386825    8.86339282592602
H        -3.93513673058056    6.08674010220608    8.96641073863624
H        -5.38958575673892    5.42788446303566    9.72092806453089
C        -5.65420909912672    7.37380567373481    8.86495477766918
H        -5.26284054956135    7.97821660263644    8.04978592637534
H        -5.43782755573797    7.88159076806041    9.80043016346974
H        -6.73483830345810    7.30245813920969    8.75317603836671
C        -3.75448519903162    0.96653579000926    9.16567962300840
H        -3.34114553115902    0.04224510017128    8.75364129217673
H        -4.75259363607551    0.73973723846090    9.57359998675885
C        -2.81656238081559    1.46804214952272   10.26324521673682
H        -3.22449723882818    2.36610447805274   10.73033947626531
H        -1.86502696613484    1.73952108954105    9.80178500816953
C        -2.58672795379604    0.40362897656826   11.32587577885455
H        -3.52651300990859    0.11667224579877   11.79490138621997
H        -1.91960689672686    0.78288427795948   12.09469902816588
H        -2.13562826153583   -0.48379473748372   10.88763641996368
C        -2.43355955217827    6.66434295734199    5.54191631714853
H        -2.47957347453803    6.90197695759578    6.60860083002258
H        -3.44890849762086    6.70494443157900    5.13071389870983
C        -1.56162001892268    7.70510961336493    4.83226503125739
H        -1.49882173416538    7.46580863000255    3.76632276212997
H        -2.05008292226298    8.67722565617392    4.92455420798896
C        -0.15917217307836    7.78499105707591    5.42661679353967
H        -0.21193856869066    7.92109527884437    6.50435777733955
H         0.38409402020318    8.62297475752542    4.99716419673940
H         0.41191336377137    6.88134780308250    5.22412460762876

