139
CSD_code = INUGEE | q = 0 | S = 0 | Stoichiometry = C80H49ClN8Zn | MND = 5
Zn       10.25449022872031    2.75764187564761   14.90569835897965
Cl       11.84794034406303    4.27783561115536   14.88418969486006
N        11.28313944862178    0.81884778304930   17.41999778607256
N         9.87701906207981    2.65772187349416   16.90456549897732
N         8.45470427500081    4.51977150157552   17.09709005652433
N         8.59383660186030    3.94324445254652   14.81628533462704
N         8.47079220980256    4.11874677153557   12.44818198212896
N         9.89845928275002    2.31207406170773   12.98407421169299
N        11.32747432988124    0.44748552569303   12.76751227511995
N        11.06483022707929    0.92880166977651   15.06786436183168
C        10.77068526575613    1.99488790301504   17.68916935275944
C        10.94196802837060    2.71497569922811   18.93722565313132
C        11.75539962419741    2.50051049215439   20.04832328118635
C        11.61119060448629    3.40425939432677   21.10319791324562
C        10.77818783664484    4.50636921928833   21.02113714280162
C        10.02294567545000    4.78235081996085   19.88123279992330
C        10.08292204772621    3.83736435200727   18.85580439223833
C         9.43740731828191    3.72501053708711   17.56936837506859
C         7.98737021156884    4.55676598477117   15.83003088705712
C         6.85188080395329    5.31891460586364   15.36649402956430
C         5.87271435258972    6.07591871341363   16.01432417121924
C         4.95067848786785    6.72516142884319   15.19435929663421
C         4.95769624406946    6.58005379965673   13.81778625650973
C         5.88612067067880    5.77265486243898   13.15806721826466
C         6.85517635470103    5.16714134015509   13.95778110125737
C         7.99906160039851    4.32618777688957   13.65304392767180
C         9.45454110489615    3.29702565689473   12.17227583697460
C        10.15399383976917    3.23103418996076   10.89565738055995
C        10.11882436466381    4.03324310535326    9.75939097072924
C        10.91404606000278    3.61573439774565    8.68664188574899
C        11.74700366094718    2.51716971274711    8.77207997593746
C        11.85489631861675    1.75433272649104    9.93981894114784
C        11.01195492042921    2.11507060301498   10.98613257416133
C        10.80613081613951    1.56675303147510   12.32045849898014
C        11.30888944255491    0.10035070510944   14.03183336852556
C        11.66920855552770   -1.21934486715477   14.53833603047757
C        11.98259256113882   -2.41742889899509   13.90292987025209
C        12.33964951311403   -3.48110532766489   14.73799605356806
C        12.32488020638595   -3.37232454614507   16.11500466355028
C        11.95241622505106   -2.19166508998195   16.76581368732588
C        11.65412980365622   -1.10778611963337   15.94466641434330
C        11.28799611152669    0.27509782589142   16.22809255342482
C        12.77944755745231    1.45292351626941   20.11317629826257
C        13.62199347969904    1.22800968728468   19.02730939974516
C        14.63725900831993    0.29534952989619   19.11389845034248
C        14.83634522954149   -0.41392626865244   20.28619573216189
C        14.00769280432042   -0.19212437338948   21.37244987470795
C        12.98450332016249    0.73237524130538   21.28683563964450
C         9.32041740690389    6.06912960180501   19.77585293260003
C         9.49183527250014    6.86759769585586   18.64405628399241
C         8.91751416883118    8.12365163140152   18.58060510912060
C         8.17786755227100    8.60637134409607   19.64700524712267
C         8.00580953616458    7.82248795224818   20.77532922888663
C         8.56903590666068    6.56209264189988   20.83970246623509
C         5.70740270533493    6.14460312201766   17.47344879051122
C         5.72930194516255    4.98216502806279   18.24441708145719
C         5.48115491295131    5.03517845732439   19.60333941983444
C         5.19325592375523    6.24504472103474   20.21160935237868
C         5.16386148915380    7.40394364943910   19.45462705472671
C         5.42207013358629    7.35652000453715   18.09793804809904
C         5.76137662796020    5.54378692198195   11.71482934939305
C         5.90025580044813    4.26352508669027   11.18496952282900
C         5.71239120280233    4.04052065672090    9.83482716064983
C         5.36732429593628    5.08605313693088    8.99551393057144
C         5.21983707215633    6.36090992668765    9.51355937508324
C         5.41876576314121    6.58971434361581   10.86143778802198
C         9.38975206389405    5.30340441712606    9.67981178356286
C         9.45184531043380    6.21264247825540   10.73304644346539
C         8.84280157838292    7.44778144579396   10.62517736860467
C         8.17729149342115    7.79982947213689    9.46319459821784
C         8.11205642969641    6.90312518414351    8.41081628222458
C         8.71076914738179    5.66255859678139    8.51847845337950
C        12.87029664691740    0.70015487249623   10.03687242066251
C        13.69283213488042    0.61783531864014   11.15745544066504
C        14.69896137449883   -0.32679735002196   11.21709217727115
C        14.90870000141072   -1.19162904280701   10.15646420464681
C        14.09949075431268   -1.11347938973553    9.03627505780949
C        13.08572810260287   -0.17653581054888    8.97685153835720
C        11.89092697037899   -2.62655169731091   12.45358440547387
C        10.78659876762218   -2.16897244499688   11.73988519607668
C        10.66791314561384   -2.43267414561084   10.38915038089541
C        11.64006389338182   -3.16850580371623    9.73346563697108
C        12.73960964028855   -3.63146092572431   10.43504150073316
C        12.86645340202081   -3.36076706971478   11.78394144292354
C        11.82849656104002   -2.17425837900673   18.22774265294493
C        10.71179595265151   -1.60983774911751   18.83823316818674
C        10.56081177217922   -1.66551275721052   20.21017654612987
C        11.51248893957275   -2.29706764802652   20.99243559557312
C        12.62477630288739   -2.86383149901038   20.39486640684067
C        12.78397861512973   -2.80071947456131   19.02391033778889
H         8.06931906868418    5.20302715540630   17.74506164769170
H        12.21693212664837    3.27273898098939   21.98763877642926
H        10.75665223413344    5.21100568570929   21.83973845604900
H         4.17412292126325    7.31785912317129   15.65554484068214
H         4.18639180050256    7.06693762579468   13.23963703821087
H        10.91643022919098    4.20695036577400    7.78228288898999
H        12.37969010974983    2.27076369309872    7.93161175781807
H        12.59039070980986   -4.43136138523392   14.28925879500239
H        12.56357158704277   -4.24052654294904   16.71211587094577
H        13.49680891631954    1.80755495507002   18.12657259629375
H        15.28439490872692    0.12976330439728   18.26517535192376
H        15.63754871550998   -1.13510416285665   20.35482692563340
H        14.16046543308562   -0.74015089119239   22.29083743504649
H        12.32833898369536    0.88824530987046   22.13120092163727
H        10.11469455826363    6.51803172615402   17.83285818928639
H         9.06494213329992    8.73324401162155   17.70164657912360
H         7.74444867812260    9.59409087786210   19.60207804480010
H         7.43679874116778    8.19804082607365   21.61277781399095
H         8.42619326292317    5.94954406957154   21.71791319606982
H         5.90398911802579    4.02873895708001   17.76599263311807
H         5.49719837418424    4.12571714369040   20.18560665666809
H         4.98612151876902    6.28281586461130   21.27028248794078
H         4.93277499171456    8.34900724244782   19.92277875179558
H         5.41009647833742    8.26433689321387   17.51317969220337
H         6.13327364875279    3.43874291805485   11.83937198436929
H         5.82623895730103    3.04294199282775    9.43639578999460
H         5.21236079107385    4.90787277571013    7.94159985693276
H         4.94871825666391    7.18078810684349    8.86467870084737
H         5.32541025704858    7.59157744222847   11.25467292589203
H        10.00505487882656    5.95981117026066   11.62373548891112
H         8.90021758819120    8.14542129218566   11.44799695756651
H         7.71369618664137    8.77175264951391    9.37597048332540
H         7.59592342014433    7.17289064318657    7.50073705312620
H         8.64318121608606    4.95976118538855    7.70036755315488
H        13.55935777978752    1.31604881762810   11.96865675426547
H        15.33093050890556   -0.38039780355583   12.09151613177044
H        15.70313340797427   -1.92226227694149   10.20087486790982
H        14.26033297591380   -1.78407189500837    8.20453459441086
H        12.44518632281369   -0.13055545679450    8.10769100075486
H        10.00881435974508   -1.62591409094677   12.25327134410439
H         9.80671514132601   -2.07055786236122    9.84664087379900
H        11.54040486814992   -3.38190680181652    8.67936455117851
H        13.50128560116830   -4.20664874086533    9.92908677999506
H        13.73659308169836   -3.70751590147443   12.32247156626598
H         9.94974620214924   -1.14830932328659   18.23020506870379
H         9.68964251521762   -1.22320396790538   20.67150276034159
H        11.38708495927518   -2.34896236746269   22.06401401445791
H        13.37082159954328   -3.35855698876756   20.99955145523463
H        13.66375711958368   -3.22790535972116   18.56483745450254

