73
CSD_code = INUTUH | q = 0 | S = 0 | Stoichiometry = C24H40BClFeN6 | MND = 4
Fe        7.95006967966713   14.06355053712393    6.83269669734632
Cl        7.94890687211445   13.31921226202742    8.70865074575035
N         7.95067620879934   12.02862364958279    5.48200227898087
N         7.94863634111060   12.34016346076366    4.16862101346346
B         7.94984340195223   13.77938278676641    3.64421447140053
H         7.94986188951324   13.79954960317474    2.46666669956505
C         7.94975088460592   10.69806936132397    5.56994688121542
C         7.94693482380604   10.14397570418310    4.28474366414329
H         7.94559113032968    9.10967765107145    4.01079929622171
C         7.94620363565309   11.21839459662182    3.42144942016410
C         7.94284277678107   11.18704092136558    1.93398549803952
H         7.06116293567673   11.68531232320540    1.53499525270627
H         7.94130269475502   10.15288198830312    1.59894581096896
C         7.95032909696300    9.93777940692067    6.86783488333230
C         6.68537105236676   10.29835200426715    7.65369495967241
H         6.69711296587619    9.82396250142653    8.63245748497104
H         5.80204403016713    9.96275737264276    7.11324824357668
H         6.61720256679955   11.37332580927484    7.78416291423312
C         7.95047440413597    8.42666987019163    6.61358986527242
H         7.95015426428047    7.89941645218637    7.56553663199398
H         8.83522170274072    8.12478852785590    6.05767798316696
N         9.30167214951376   14.77970376654798    5.49145993772561
N         6.59782463672757   14.78028764945610    5.49163849578103
N         9.18467037829008   14.50616279592089    4.18665202852559
N         6.71607752081595   14.50832917426625    4.18646525530363
C        10.48132096465167   15.38510097837588    5.68040628900800
C         5.41820437791675   15.38582191356165    5.68013363491068
C        11.12992258332423   15.49422503298658    4.44812491944750
C         4.77091600024388   15.49683083470492    4.44736123191657
H        12.08740733349038   15.92744466474883    4.24665571215459
H         3.81381756981718   15.93055732477078    4.24528341009700
C        10.27519491243007   14.92373295393122    3.52280201049751
C         5.62639308904787   14.92725397833558    3.52219135519180
C        10.47742104850975   14.76614177365665    2.05896600328643
C         5.42526369758955   14.77256950580401    2.05791525560447
H        10.47556192706200   13.71297105882884    1.78397741802590
H         6.21996075408986   15.26805458384811    1.50341750171163
H         9.68429601196313   15.26240009391132    1.50281387644895
H         8.82330182032212   11.68410461526813    1.53084433573628
H         5.42500713917634   13.71990403113401    1.78105666406777
H        11.43235975702200   15.20134146820859    1.77638955073035
H         4.47152737128239   15.21039237037993    1.77537825663236
C        11.00137045775701   15.80012853850532    7.03023475592803
C         4.89601115730892   15.79885507015690    7.02979517451972
C        11.41738226843634   14.53306500414623    7.78919871880225
C         5.98519872493261   16.53649714798335    7.81196717818050
C         9.90997893967830   16.53700917948283    7.81009327385019
C         9.21487081860813   10.29841650160350    7.65423307977766
C         4.48106338774596   14.53043284299975    7.78697570798674
H        11.76750309694631   14.78549941894050    8.78742295359758
H         5.59993333788096   16.87410409670715    8.77094426497026
H        10.29443052738818   16.87988324453856    8.76745486897854
H         9.20211389305297    9.82492669110327    8.63341684225616
H         4.13035288194893   14.78111809355136    8.78542468887774
H        12.21543281745082   14.01766388862010    7.25934854027581
H         6.34066043144818   17.39946914353838    7.25414088235598
H         9.55073347170264   17.39620989212363    7.24909992464820
H        10.09856705380112    9.96192511869216    7.11496338544357
H         3.68359760547659   14.01530738876233    7.25610287387278
H        10.56952043431983   13.85324933355386    7.87610103687106
H         6.82859165993314   15.86820578630587    7.99884415714426
H         9.06938458364987   15.86639691035414    8.00048860109447
H         9.28349628458131   11.37344640265973    7.78387062702632
H         5.32934643562906   13.85111129876566    7.87322304590798
C        12.21487320035387   16.72270060996739    6.87851625391416
C         3.68127383792741   16.71968628019013    6.87744769263066
H        12.55343741251250   17.04905441693086    7.85939245995687
H         3.34056583946642   17.04390922405184    7.85825598305775
H        11.95878665003291   17.60227866062134    6.29238126669972
H         2.86006105098172   16.20175519488019    6.38907082310210
H        13.03776023335686   16.20539774207425    6.39229346751631
H         7.06598724228892    8.12488491985290    6.05723804635980
H         3.93679986149072   17.60059459935592    6.29310558520151

