73
CSD_code = INUVIX | q = 0 | S = 0 | Stoichiometry = C24H40BFeIN6 | MND = 4
Fe       -1.44565189698282   15.55909211064580    3.94978220146831
B        -1.86085362239067   17.49095882321623    6.32243387737381
H        -2.05974901694261   18.24705520483357    7.20086977948419
I        -0.29662938974843   13.89975388293704    2.42162945802919
N        -3.06521302214927   16.64401111502969    4.31103740710946
N        -3.06267601960806   17.46819306708515    5.36517980798638
N        -1.45229477239788   15.00911047995530    6.05984134645434
N        -1.66498995901883   16.07235974627396    6.86253881870650
N        -0.28478986731255   17.34558368904162    4.34434959773830
N        -0.62142693966366   17.90761901841144    5.52449120141546
C        -4.23282424097593   16.78768831319919    3.67318654375888
C        -4.99441158234176   17.74236377550264    4.34966711338502
H        -5.97511489603364   18.09167130315906    4.10216764887067
C        -4.21779474544531   18.15231143173932    5.41966580925631
C        -4.57838401898713   16.00341819585631    2.43696396248429
C        -4.49282162986994   14.50814338639225    2.76261369291786
H        -3.49431417639236   14.26296857778401    3.13864318148723
H        -4.68325976094510   13.90933647575266    1.87499686886240
H        -5.21704954473152   14.24003660106568    3.52876117288025
C        -3.56933708423588   16.35093053776315    1.33695068673927
H        -2.55390313281347   16.12719242256772    1.67659705149738
H        -3.61815371750310   17.40963125983109    1.09179646967872
H        -3.76662093873763   15.77317867903398    0.43699053141499
C        -5.99130611326168   16.33792908657776    1.95468082320306
H        -6.72575443996647   16.10772799587313    2.72284018332702
H        -6.22578620689321   15.75073982446669    1.06960269619719
H        -6.07175606041636   17.39131699194302    1.69731931292704
C        -4.54391722027197   19.15870032360498    6.46270974033422
H        -4.55253319361491   18.70142358429189    7.45057673321030
H        -5.52431182056069   19.58297098837421    6.26322867746166
H        -3.80664969744665   19.95939715352419    6.46743028149855
C        -1.38900879113336   13.92589888124710    6.84633470305890
C        -1.55288070482674   14.31573893113791    8.17689596845413
H        -1.54867285279748   13.69385330745712    9.04708652428941
C        -1.72629350737670   15.68431897647339    8.14782147219369
C        -1.16325939285745   12.52268919646679    6.35526485543742
C        -2.18532957892485   12.20522788842105    5.25914613343135
H        -2.23593151438954   13.02226603168332    4.54204571372247
H        -3.17526155053923   12.08169203665513    5.69496972445990
H        -1.91716709709872   11.29239547686320    4.73321503194896
C         0.27869258253638   12.42032370546985    5.84356536421514
H         0.50719966352698   13.24182999658997    5.17327416900199
H         0.43454003946992   11.48277605673298    5.31595469909916
H         0.97274514702673   12.46916286370062    6.68040640435583
C        -1.35051153632445   11.50751709548516    7.48811031603573
H        -0.61416810565213   11.65546177814780    8.27415457913182
H        -1.22545696008372   10.50218920063042    7.09183271864042
H        -2.34580562088887   11.58411772551775    7.92075735887188
C        -1.94602682791654   16.59688013894251    9.30042288895660
H        -1.16782556666924   17.35596046701076    9.34875288182498
H        -1.93071581456388   16.01946745025694   10.22113712121049
H        -2.90703832185585   17.10146537289626    9.21878909152634
C         0.72854431580158   18.06109550213100    3.83827210086865
C         1.06353288233785   19.07677426662532    4.73677208765292
H         1.83566551119181   19.81023174167180    4.63750219186747
C         0.18630576251224   18.94820068014325    5.79337497796295
C         1.38638816889837   17.81886448006625    2.50684507525170
C         2.18800437719853   19.05096586795862    2.06874164489336
H         1.56069257761557   19.93991764094833    2.05724516936143
H         2.57342895313587   18.88908015615794    1.06440785074250
H         3.03307472031919   19.22721031223953    2.72922676339293
C         0.31147859963280   17.55457889793490    1.44840353765129
H        -0.42348316557952   16.84513446584036    1.82380060422063
H         0.75482712633246   17.15328284011371    0.54056866906315
H        -0.21037009520859   18.47865548857160    1.20600271687913
C         2.35339912165205   16.63749488011650    2.64681606863199
H         1.84857141103830   15.76964368833438    3.05516165648681
H         3.16611303390324   16.90154953271207    3.32071730659300
H         2.77482454982038   16.37284458156897    1.68019731970714
C         0.11927219924928   19.77800719703324    7.02469325449357
H         0.20715678515132   19.15612789262315    7.91322207654958
H        -0.82361113440286   20.31923268690799    7.08067106738244
H         0.93463933839721   20.49666057678068    7.01587746332016

