73
CSD_code = INUVET | q = 0 | S = 0 | Stoichiometry = C24H40BBrFeN6 | MND = 4
Fe       12.08601968809371    7.93191326491197   24.05550103221872
Br       13.96904421728552    6.76674358292412   24.38896392842377
B         9.06627416438960    8.48491415050808   23.32797975033740
H         7.96001879242391    8.78589144017406   23.06268318621576
N        10.38316259710340    6.33710904263562   23.67585398728581
N         9.22007734740447    6.96198145698196   23.38831475242509
N        10.71725181240755    8.95509759833813   25.14309025361309
N         9.46382885054051    9.07196648187217   24.68677970989030
N        11.36066737539126    8.98862424663967   22.46327583173660
N        10.03383814776229    9.04647882151129   22.28206867876406
C        10.13726496807691    5.02343175826617   23.65827987512109
C         8.79127878196243    4.80564383240297   23.35159238909279
H         8.27962758666802    3.87073285647612   23.26013500586848
C         8.24153813167041    6.05918409420594   23.18753705520928
C        11.16859658460807    3.96323143488991   23.92992274503149
C        12.26032578157968    4.05522152857245   22.85711195696851
H        12.59005436938963    5.08079958711566   22.73204394194751
H        11.86926361809057    3.71106280414521   21.90124375273711
H        13.11606098595853    3.44122381171219   23.12611938635322
C        11.72790528190335    4.17023878397397   25.34244651864584
H        11.98695124554275    5.21161284765273   25.50242196431539
H        12.61323603728463    3.55922020781070   25.49895589644885
H        10.97751125704329    3.89580090229546   26.08186007691665
C        10.54837947765983    2.56341541003043   23.86258309235915
H        11.31627704647270    1.82109908634148   24.06987109197010
H        10.13918882318111    2.36326222658946   22.87498303166806
H         9.75656896130602    2.45009980075603   24.59969454266998
C         6.83122638573581    6.39170521175842   22.85207192069907
H         6.77353431213865    6.95844894873427   21.92477094763872
H         6.37247134354845    6.98519940841570   23.64082909690039
H         6.26650915724490    5.47031767693046   22.73489760346975
C        10.76687652847609    9.51798613553243   26.35715797389175
C         9.49805560811046   10.00670803207264   26.67530736875560
H         9.19622970695247   10.51213895562549   27.56871547006891
C         8.69627320962462    9.70392739199948   25.59019756111921
C        12.00322796451068    9.53712948698213   27.21371324231455
C        12.29198573076929    8.09980235196428   27.66502067767463
H        12.37852531807093    7.44196879284053   26.80087994614052
H        11.48219118941416    7.72943726849733   28.28973831983681
H        13.21904776818082    8.05518531685719   28.23134018439633
C        13.18227485360826   10.08419758435641   26.40534581155108
H        12.98432649162666   11.10398709993152   26.08239750253077
H        13.34861661560024    9.46880059031125   25.51810051248882
H        14.09129077942570   10.07498779911924   27.00177376496790
C        11.79562994328121   10.42065001625866   28.44696959299785
H        10.99993418812230   10.02899418976478   29.07539150313278
H        11.54372592078951   11.43769059925477   28.15535171058751
H        12.71014551521459   10.44811658049630   29.03519315824427
C         7.25054442084377    9.99408292676835   25.40679505380321
H         6.68544758788048    9.07127859013612   25.28955535859215
H         7.08797040764486   10.60523936146999   24.52103281758002
H         6.87602442900738   10.52704569088682   26.27669373747246
C        11.94303256365892    9.57508018594080   21.40921969477502
C        10.94756623489640   10.00782122895522   20.53060846315169
H        11.07401836801458   10.51077135115366   19.59484794147363
C         9.74778344066013    9.65391770622104   21.11857312731068
C        13.43182778181929    9.68261827715712   21.22354137012041
C        13.96863435543727    8.29209484791325   20.86153544684717
H        13.56047901865517    7.96763240684523   19.90680352960882
H        13.67910049093775    7.56455375199410   21.61658229618841
H        15.05342226838752    8.30780922112751   20.79035044541926
C        13.76707279034169   10.66092056704415   20.09348024840529
H        13.34032598258756   11.64150203159612   20.29216238587013
H        13.38785031187419   10.30047997140338   19.14087242106458
H        14.84649996230817   10.76571485974398   20.01006070854417
C        14.07928843436507   10.18581763906580   22.51552984040525
H        13.83706633143396    9.51740609144749   23.34398278665426
H        13.71588227985048   11.18132223625073   22.76159428835007
H        15.16089486189919   10.22222650071723   22.41158573604659
C         8.37234933715478    9.87047999171393   20.59972839873913
H         7.78930316579902   10.47949823095855   21.28807929491921
H         7.85804008149635    8.92014679414437   20.46947716204557
H         8.42466463140171   10.37645904191000   19.63933014297203

