44
CSD_code = INUVOC | q = 0 | S = 0 | Stoichiometry = C13H23CoN4O3 | MND = 6
Co        9.80132360711652    4.59452457828178    6.92797104262843
O        10.21434995224047    6.93652977296728    3.66444495291761
N        10.00913217849566    5.96274759603079    5.68268098085595
N         9.43612782389743    6.01262156362527    8.24391781914956
C        10.59123769703369    4.59456057660150    3.72458735698188
H        11.68125472231623    4.59460770151568    3.60186735117580
H        10.18178708371091    4.59454993214079    2.71176917607703
C        10.22133228293617    5.92339424380850    4.36158794233091
C         9.72941668633160    7.29741741015879    6.19456923026410
H         8.71200321820888    7.60396022341387    5.91910043100582
H        10.40940542965948    8.01474729582355    5.71928806870690
C         9.92719569650291    7.28562656023971    7.70496918703817
H        10.99430721505741    7.35546147889498    7.93088967102720
H         9.41542753550625    8.13374686631779    8.18058407149896
C         9.86672485916156    5.87634253021100    9.63525077764248
H         9.49684515490025    6.73361671194338   10.21961179612767
H        10.96016738768035    5.90543505706179    9.64283615676727
C         9.41223037789459    4.59450346654529   10.32936771861222
H         9.84571233211746    4.59451248826086   11.33229197175816
H         8.32996670978912    4.59449005567835   10.45893145082300
C         7.97202071795583    5.85819097241700    8.04742073522018
H         7.57801159531123    6.71250110318101    7.49848257236294
H         7.44132759596294    5.80361237383791    9.00452270183444
C         7.90588226659883    4.59449580355172    7.21917550921538
H         7.16591340404767    4.59447586624031    6.42449926932293
O        12.07791410889629    4.59455414849352    7.08067141041277
H        12.25548972299553    5.36199694634351    6.52300993898083
C        10.22131220195869    3.26570495093297    4.36156694515479
O        10.21460023865737    2.25255518546609    3.66445153754931
N        10.00914135600990    3.22632809030911    5.68265939417237
C         9.86676120865634    3.31267278058768    9.63525675451553
N         9.43616729900317    3.17639295218411    8.24392274356291
C         7.97205335513517    3.33081720371832    8.04744360398104
C         9.92722013709560    1.90339510385370    7.70494072013928
C         9.72945906540931    1.89164744880212    6.19453474622707
H         8.71202878345024    1.58514594721124    5.91909794442217
H        10.40940624992313    1.17430852598050    5.71920860866100
H        10.99432234655857    1.83350216064536    7.93089847404911
H         9.41542247742997    1.05527215445251    8.18051974598944
H         7.57802955078975    2.47648842989617    7.49854560860985
H         7.44138368755114    3.38542128732914    9.00455508624554
H        12.25597632884739    3.82612306204809    6.52452871997575
H         9.49690244648367    2.45538653218513   10.21961390365685
H        10.96020590471552    3.28361486081238    9.64285617234900

