73
CSD_code = INUVUJ | q = 0 | S = 0 | Stoichiometry = C24H40BFeIN6 | MND = 4
Fe        5.76323279713981    4.07558103581930    1.27706925445632
B         3.86311597680035    6.45965039598871    0.81223919837875
H         3.14987966131398    7.37211980353612    0.60968226778007
N         3.62883207347050    3.98218366238518    1.26794738256212
N         3.05193966279680    5.17835858086533    1.03337335129294
N         5.68780249094879    5.23732895026958   -0.37414883410743
N         4.79346088902669    6.23560545768711   -0.38672983578926
N         5.65962702692917    5.83936744542327    2.48304762920727
N         4.73071575670077    6.71574485892221    2.04926524346248
I         7.11082608373491    2.06449157818198    2.11660582194679
C         2.64417167622068    3.08215208645268    1.39108900949044
C         1.41532016334286    3.72450807958184    1.23524601783917
H         0.43909628564118    3.28942616919978    1.27831253601266
C         1.71407032783710    5.05370651204113    1.01007870351422
C         0.76246350155252    6.17218651913906    0.78033784830176
H         0.92983760018537    6.63125260724651   -0.19219419348326
H         0.87689591147222    6.94068234047922    1.54237034935213
H        -0.25429739029118    5.78997385522738    0.81750021909194
C         2.87271921555738    1.62281189108391    1.66792773117676
C         3.78334800944372    1.05267920188104    0.57439773879245
H         4.62678065783708    1.71883473212245    0.39833575586752
H         3.23250909408100    0.96010640873801   -0.35989591045230
H         4.16154471509433    0.07339023520598    0.85658584171928
C         1.55376706249564    0.84400801966726    1.65268894339098
H         0.88008589534709    1.20045245903471    2.42823413855510
H         1.75685998420746   -0.20879908826117    1.83589902399902
H         1.05767290863726    0.93449294264947    0.68883068251736
C         3.49984447940548    1.49546419338582    3.06181748851413
H         4.31795744249036    2.20057499821911    3.17707086590109
H         3.87581724423531    0.48897766595446    3.22664731807938
H         2.75721450689501    1.72033064033523    3.82491008158414
C         6.35444421769892    5.26914641024171   -1.53528279947403
C         5.86385569308336    6.32430734924969   -2.30524900425333
H         6.18038399525220    6.62283174178576   -3.28275656988041
C         4.87264746781441    6.91576695099012   -1.54206127401561
C         4.02430441933674    8.08614104164284   -1.88549254649874
H         2.97128744948840    7.81059715242292   -1.89262607596347
H         4.29821003008645    8.45416038899113   -2.87067022405405
H         4.15941120610607    8.88625260752787   -1.16010240384910
C         7.44204805109318    4.28779708213442   -1.87246994081555
C         8.01573524636613    4.55897732264965   -3.26505755805498
H         7.24374973990228    4.47002051541562   -4.02581638713526
H         8.79759357935021    3.83539878177491   -3.48461000471855
H         8.44724544811142    5.55571527203316   -3.31879678210745
C         8.55949423916172    4.42546724553136   -0.83214040849666
H         9.03523311303387    5.40073202591606   -0.91295593780752
H         9.31385428727762    3.65479754522766   -0.97136056909623
H         8.14876791324727    4.33453713218925    0.17622796054810
C         6.84888711144134    2.87469983028097   -1.83951988151792
H         6.11348936405616    2.75308387374268   -2.63221150763518
H         6.34638240928640    2.69922482706230   -0.88521492838064
H         7.62731688195380    2.12602364491899   -1.96554567176628
C         6.25213702616701    6.38444356295366    3.55384496728364
C         5.68055058384789    7.63184319130518    3.80749893374699
H         5.92737969397336    8.31821707243521    4.58987151665909
C         4.71877406730438    7.80771239452370    2.83253552624721
C         3.81465920949065    8.97309834617144    2.64869302371627
H         3.97687599480836    9.44213465543072    1.68000873712346
H         4.01014864300255    9.70385327452769    3.42911392979582
H         2.77195993244709    8.66704320423965    2.70704985525058
C         7.34689002165007    5.71683835564880    4.33770982157450
C         6.75930920777622    4.46776827542792    5.00621117715061
H         6.09012613134909    4.75904017866709    5.81352710348702
H         7.54738237150153    3.84074117767241    5.41525651157745
H         6.18344099537403    3.88806844457379    4.29078926102235
C         8.49492418607162    5.37112669463241    3.38237468089149
H         9.02910418273403    6.27582480269669    3.09762584005947
H         8.10698568121746    4.91427569535459    2.47300481475250
H         9.19493004711007    4.68370542037772    3.85049027893946
C         7.88994971199951    6.64471581919293    5.42893308100309
H         8.28419567699714    7.56337747416121    5.00001558612286
H         8.69502844300881    6.14129982919975    5.95963079951321
H         7.11499461846979    6.89834915061423    6.14828540010019

