76
CSD_code = INUWEU | q = 0 | S = 0 | Stoichiometry = C25H43BFeN6 | MND = 4
Fe       10.05991955199924   11.94902162458038    0.74213644236931
B        12.17381229530613   10.14912024784974   -1.01918766717497
H        12.83795781222071    9.45194870048245   -1.69839861023343
N        10.23824717372406    9.86072038451376    0.55031064382949
N        11.24228714018589    9.30567884652231   -0.14082339670433
C         9.59825379029275    8.87751323808565    1.19533562966383
C        10.22190629074023    7.66275183249387    0.90669341788639
H         9.95929463593402    6.68755181282718    1.26109720192081
C        11.26496667462646    7.97636111826837    0.05431359449355
C         8.42955763818733    9.13130057798696    2.10656821593515
C         7.77654045576976    7.81813465696266    2.54507666973584
H         7.43893972892943    7.24824035706062    1.68250540368168
H         6.91588456144470    8.02856081478423    3.17650668567631
H         8.47463744588037    7.20923024273374    3.11378878580880
C         8.95494236886049    9.87884953880970    3.33805964224407
H         9.49294490100211   10.77437341253968    3.01870414581393
H         9.64142253284564    9.24729380927797    3.89753335006079
H         8.13557750375253   10.16728351352723    3.99272288544834
C         7.39661424661597    9.98740792919143    1.36871422123509
H         7.87194223698162   10.89955702864926    1.00146088422838
H         6.57689552907414   10.25628282561591    2.03095075853846
H         6.99310351909206    9.44395374689328    0.51736370346872
C        12.26309440905129    7.05584987532405   -0.55083839266004
H        13.27190525885410    7.33892093737595   -0.25609593285297
H        12.20794092614075    7.08314010244715   -1.63771307834105
H        12.06955196995982    6.04056159257718   -0.21428912309705
C         9.38914711098439   13.24279977853947    2.17164718102877
H         9.25935773802255   14.20976653685009    1.66958448516308
N        10.37862225492237   11.86445081731319   -1.33991626631449
N        12.53247184917411   11.83230712541643    0.83110389414213
N        11.28904516836150   11.05104533647556   -1.88879006868290
N        13.04643122023213   11.02669458584316   -0.11598205784651
C         9.81644649175349   12.57084095753444   -2.32780269934175
C        13.55707653915802   12.40197541971579    1.46111741349515
C        10.38542804537119   12.18475428648051   -3.54275972310100
C        14.76030629885291   11.96050443532992    0.90220970924949
H        10.15754006640336   12.55022557956283   -4.52259104476328
H        15.75825310462108   12.23137235903045    1.17909670077307
C        11.31857444808854   11.21542442048611   -3.22230066892781
C        14.39307219588424   11.08530958575398   -0.09986908828344
C         8.80732047601647   13.65795919965491   -2.07860160301621
C        13.36222839517057   13.35236940356967    2.60756942966616
C         8.20569782833631   14.16055842849501   -3.39331233764407
C        14.70344790849858   13.83176953784884    3.16770470822018
H         8.97382788737526   14.58558951744319   -4.03424413548707
H        15.29553446488241   12.99316687176037    3.52694075497153
H         7.46772913377376   14.93359580926097   -3.18934412654385
H        14.53123002063552   14.51076960532642    4.00066900168889
H         7.71568318601853   13.34926553977084   -3.92659359692838
H        15.27380667725910   14.36096924100335    2.40774327980176
C         7.68534795293837   13.13061113722157   -1.18108138847492
C        12.56728573811621   14.55844444808007    2.09836654671477
H         8.10173207266442   12.80357549857859   -0.22436884684275
H        11.67116939467974   14.20789173987611    1.59165630484599
H         7.18608875113111   12.28650022280025   -1.65086936591068
H        13.16532805913088   15.12745238918414    1.38917537161585
H         6.95016851016699   13.90965366206809   -0.99214913636713
H        12.28704365375302   15.21327054440035    2.92079155849276
C         9.54158753932635   14.80760489211913   -1.37545081959917
C        12.59152798667777   12.61081066732831    3.70534351911948
H        10.05670155548846   14.42496727851085   -0.49158974636289
H        11.70563550455672   12.14873702920709    3.27575041115345
H         8.84286257739483   15.58617289793174   -1.07644143395265
H        12.29883426941211   13.29257959306826    4.50138538509903
H        10.28455490652952   15.24390843077365   -2.03957663204396
H        13.21365437486831   11.82665522250259    4.13235663925614
C        12.21347329928660   10.46605247676016   -4.14286394993908
C        15.28482209529717   10.32987078441301   -1.02069971840971
H        12.04630617923580    9.39399205559513   -4.05641040682163
H        15.08079559953270   10.58964776845187   -2.05807950354453
H        13.25837616809425   10.66448742097586   -3.91141811731231
H        15.14483065368148    9.25618778054699   -0.90770938337971
H        12.01670588484443   10.77213913412275   -5.16716974302376
H        16.32053084574557   10.57296111664016   -0.79670879707385
H         9.89860727088705   13.44213201293294    3.11324368769221
H         8.38241004929011   12.87380065006536    2.41394234276755

