43
CSD_code = INUWUL | q = 0 | S = 0 | Stoichiometry = C17H22ClN2Rh | MND = 8
Rh        5.35973146530228   11.32706059728445    3.23867793180289
Cl        7.15915833440976    9.91229161232374    3.20193468257546
N         5.23231577814635   11.28486408237790    0.53568454889369
N         4.69099270538034   10.83658464129414    1.58868636901043
C         5.41938411300030   11.39632016694404    5.54768204185988
C         4.42789837454404   10.41249552979452    5.14244673648596
C         3.41469090462850   11.07657061438460    4.43046776464227
C         3.82350609426237   12.45556603956368    4.27762355816966
C         5.01893489698769   12.65403781762817    5.07164638869996
C         6.55046911100840   11.08547096193585    6.47670004707042
H         6.15634734824735   10.72397771238573    7.42816273579044
H         7.15974363067073   11.96625821018522    6.66440984298141
H         7.18955550974148   10.30848439258322    6.05705466415749
C         4.43036019865859    8.99749218121558    5.62904179058305
H         4.17925964383988    8.97333067149065    6.69176939592651
H         5.41551842213794    8.55159922603957    5.50292887877433
H         3.70668875801786    8.39306512145784    5.08792457125425
C         2.10402668307442   10.51779948730366    3.97145754601691
H         1.31560294126224   10.81934424849996    4.66376480115335
H         2.13367381833513    9.43243263340544    3.93439980363342
H         1.84697327644092   10.88597208405666    2.98053421794400
C         2.93496500569778   13.55886500029641    3.78657928053749
H         2.30111904657943   13.90727927581471    4.60498788080631
H         2.29104786193511   13.21295903321729    2.98115639016034
H         3.51795535806069   14.40341532838840    3.42505511765305
C         5.59373993618499   13.99084862022706    5.42980382161317
H         5.01768254793263   14.42235219299344    6.25128616117266
H         5.55026352954050   14.67991634859871    4.58860217527779
H         6.62892996182058   13.90296488769457    5.75108054461106
C         6.48613275869881   12.47800275252715    2.04789737394922
C         7.50374964794276   13.36762917707886    2.36596105344031
H         7.74542739725701   13.57790327711306    3.39880540529939
C         8.22001683694070   13.99415972090207    1.35850806159358
H         8.99315372528530   14.70288555099771    1.61796548933391
C         7.96995362162509   13.71615830480868    0.02060581408301
H         8.55185910794820   14.20366332741822   -0.74737254904849
C         6.99294961002440   12.80653560041761   -0.33154426353341
H         6.81459981553886   12.56225587059209   -1.36787540007008
C         6.26220666513083   12.20386742293230    0.68587747372370
C         4.76058071456212   10.84493010131478   -0.75884841723228
H         3.93994666030893   10.14810475118346   -0.59882448510315
H         5.56473571973699   10.34199218631162   -1.29759220587265
H         4.41425246315031   11.69859323702215   -1.34351303982068

