75
CSD_code = INUWAP | q = 0 | S = 0 | Stoichiometry = C28H34BN8O3Re | MND = 7
Re       10.05479673704752   11.80990807472776    4.64295648840308
O         5.76207325170128    9.56589326576125    6.99691630392189
O         5.84420366184328   12.57528373404073    2.75442068373283
O         9.05358114848310   14.58697054777318    5.45978504909960
N        11.03021898793132    9.94577060925972    3.86500867208785
N        12.32579836731476    9.74718247752916    4.11014429334389
N        11.36103316807028   11.54103294063262    6.38237715714102
N        12.60020526695536   11.07147673721478    6.20325099171548
N        11.88807593404910   12.69385503007680    3.87912454212733
N        13.06711951217249   12.09163152298092    4.01691093836889
N         9.38576349522413   12.22490703331020    2.56300530034010
N         8.41230333385392   13.25354667413143    0.88362231323098
C         8.12255955002811   10.54946067261091    4.63162572283767
C         8.43249427985494   10.69119581632845    6.01354967676707
C         7.27955449456121   11.46740427392914    6.69195936908718
C         6.49879884096626   12.06032241668658    5.50011458830700
C         6.69907233723875   11.03864843724282    4.38659095294587
C         6.36582999697863   10.50301877021109    7.45218839032053
C         6.31577434618806   11.00963647830045    8.87543359982502
C         7.71661319072627   11.58995727597502    9.05135833114497
C         7.63496155689209   12.47281280862729    7.80309044816923
C         6.39477046193967   13.31087651003407    8.14581979923595
C         5.44813255265641   12.28405101384312    8.79626677679074
C         6.32220172544156   11.49194619269052    3.00316629330383
C         6.52381185492936   10.44762066842433    1.92870393474420
C         9.05909796113596    9.52774801478615    6.75397118784025
C        12.73922487729627    8.60420571645988    3.54353040789979
C        11.66489491672258    8.03471179781126    2.89699857149802
C        10.61619365000916    8.92398270737643    3.12906912950233
C        13.24987969989196   11.03267154499602    7.37514587733438
C        12.40049343604734   11.49667581633871    8.35483012720518
C        11.22519960236784   11.80925483092194    7.67535781825147
C        14.01625147224510   12.79883380076043    3.39065573185690
C        13.42182302639113   13.90649387346880    2.82195926054601
C        12.07557608605388   13.79406044683823    3.16329198723026
C         8.55205251368973   13.18391452165068    2.21585982349526
C         9.22023474132989   12.29747808162760    0.34870118991558
C         9.82307017035865   11.66913320517516    1.39988035864989
C         7.52296955385585   14.13955647194077    0.18724974215639
C         9.39704838442977   13.50528122771324    5.19779939470842
B        13.18971402255674   10.78741795516454    4.82111187987835
H         8.36030140825739    9.60548560428663    4.15182564625134
H        14.31604569815386   10.42845743497377    4.89382749010505
H         5.44257574537792   12.20375855569479    5.72062906067049
H         6.94323548510115   13.01074098833042    5.20947938490489
H         6.05485449092339   10.17160060765070    4.59584781006374
H         5.96746730705320   10.27521060212828    9.59857660200675
H         7.81397103041183   12.16868911167819    9.96906189270952
H         8.49422898496778   10.83343176090265    9.01964819128183
H         8.50264034728117   13.07636882479833    7.55550740384193
H         6.66965167527416   14.08888815214044    8.85859237718506
H         5.96302811868253   13.79822562135982    7.27704236332601
H         5.14416230471349   12.59120213597179    9.79696451282959
H         4.54563852566587   12.11388450790567    8.20935971918326
H         5.99273496590910    9.53655323364596    2.19317437775827
H         6.15972594282725   10.81304087703993    0.97132692410743
H         7.58149704762271   10.21140358279535    1.84600098775390
H         9.66537560912577    9.83706252060953    7.60203291357824
H         8.27382596755577    8.86253545183341    7.11628801143036
H         9.69510666661630    8.95766213946041    6.07859715530476
H        13.75462857349104    8.27606312548089    3.63466939604487
H        11.63543244651027    7.11988690939740    2.34131131491594
H         9.60763105413974    8.84062086569797    2.77161245406003
H        14.26055426529928   10.68355475723948    7.43633852243734
H        12.59813494920128   11.59863502589394    9.40178785047872
H        10.31767850240275   12.21824342223551    8.06704305026677
H        15.03811997713487   12.47742371771004    3.38915655608622
H        13.89068794988223   14.68110056683091    2.25086331670921
H        11.26011820872349   14.45506000408530    2.93975059001770
H         8.03454341165513   13.82766675771429    2.89806171871243
H         9.30419746750757   12.13753594828707   -0.70652488016348
H        10.53060064931963   10.86430443204091    1.37431649217283
H         6.55326748299044   14.13196346098912    0.68648307238864
H         7.91406783683252   15.15874699830192    0.18874550366239
H         7.40569773596072   13.80546229950880   -0.84190088705373

