43
CSD_code = INUWET | q = 0 | S = 0 | Stoichiometry = C18H19CrNO3S | MND = 9
Cr        3.29941581580134    2.13949216786988    3.01134433936600
S         1.39030378308794    0.97588424611307    1.77658493664491
O         4.30662391886372   -0.57690053727307    3.72407986836794
N        -0.20206869225839   -2.77472709117249    3.76882340368854
C         0.80598914244312   -0.46577458584285    2.59440959443608
O         3.34179227807280    1.64386494632443    5.93739494549355
C         0.13731379161699   -1.42262730293488    1.83352245146851
H         0.00188202245695   -1.27681156726184    0.77373961366124
O         0.46869617648670    2.68298123229498    3.88122407814163
C        -0.34000715765902   -2.55262320908752    2.47241237307000
H        -0.86094505670651   -3.32185653888734    1.91784462168710
C         0.42513794983659   -1.85887341747145    4.48539505318730
H         0.51622941322983   -2.07036868781440    5.54231655371993
C         0.94887734225494   -0.68891306177188    3.95902512234756
H         1.44987012615648    0.02466814761572    4.59804105165206
C         4.09671405884578    2.79260324109109    1.03662057059864
C         3.21358638603220    3.78500571208183    1.56631862009733
C         3.77921354963181    4.27884660718309    2.76679775484887
C         4.99613997427848    3.56828802427754    3.00112461638292
C         5.19657112672013    2.66654699540523    1.91445560345860
C         3.95058045974607    2.14814122020037   -0.30483977067461
H         4.27928505263503    2.83555190009118   -1.08727435785743
H         2.91170100008841    1.88552855169256   -0.50067569446443
H         4.55018987068024    1.24305008900111   -0.37376000176101
C         2.03251816680390    4.34527758001704    0.83613286809138
H         1.36773615462458    4.87995768873166    1.51183104337579
H         1.46171721246763    3.55300178545667    0.35201921024710
H         2.36527888629025    5.04208165485633    0.06380115029005
C         3.28515285843081    5.43994871668646    3.57074442320325
H         3.52969069676815    5.31778207822753    4.62400663775010
H         2.20602216386516    5.54742145761889    3.48428865531393
H         3.74875300496893    6.36418635576211    3.21940006716603
C         6.00332266388942    3.89599105628787    4.05877267599204
H         6.67629773781655    4.67972711713033    3.70459981111013
H         6.60310411987179    3.02437787797286    4.31353333067103
H         5.51721189624024    4.25152720952251    4.96504148793524
C         6.43677919722438    1.86347092457602    1.67118750567517
H         6.22177558492561    0.97188656126564    1.08591811346164
H         6.89350285892250    1.55203728073661    2.60850937594986
H         7.16597461508312    2.46288764734062    1.12191747948470
C         3.89723441756820    0.44958867771121    3.39957319633497
C         3.34546905955758    1.87163567105160    4.80512126664364
C         1.48016637233786    2.34433557732902    3.42867635374494

