77
CSD_code = INUWUK | q = 0 | S = 0 | Stoichiometry = C25H43BFeN6O | MND = 4
Fe        2.77219454324523    4.78013371112270    5.52971723694573
B         0.99920109400754    5.74127898371715    8.08343066032668
H         0.44447051305171    6.02922800725024    9.08272621330804
O         2.95056514005585    4.79948429728607    3.81421326294716
N         0.75610971500732    6.19594895950905    5.61089671484700
N         0.27682979741608    6.32041417018407    6.86294682631959
N         1.80268808958035    3.64524030001473    6.97351740287361
N         1.07036413390976    4.21510665797887    7.93872574306638
N         3.33028267816809    5.90354288272667    7.17806060631368
N         2.43516420730426    6.28162554025256    8.09903367372973
C        -0.07871917273330    6.84298093001162    4.80211686500673
C        -1.12657258568427    7.39285862897352    5.55232441223432
H        -1.96018253149109    7.96771806233710    5.20526996499055
C        -0.86449981756796    7.03910474698397    6.85890476528645
C         0.11891362475089    6.94827259878842    3.31509135296273
C         1.49366632831094    7.56522570068336    3.04185359620681
H         2.26008935933702    6.93720913895835    3.48477666130776
H         1.55661757150032    8.55886272304634    3.48119519156344
H         1.66814238401456    7.64508114936125    1.97055522016376
C         0.04008412242106    5.54544335744256    2.70519280141888
H        -0.93011509049174    5.09716293774375    2.91055046910892
H         0.81449268817366    4.92289642620098    3.14216764696737
H         0.18206947300510    5.59188628820552    1.62710894774677
C        -0.96210434971906    7.83223051760371    2.68555150846687
H        -1.95115227903970    7.40729912150971    2.84097676541042
H        -0.79115241151711    7.91229724489667    1.61359172163407
H        -0.93996014470526    8.83351479476610    3.11006723265801
C        -1.66451641764753    7.36538385634785    8.07060902108219
H        -1.99914313985422    6.45887978238404    8.57204501363409
H        -2.53653244780612    7.94539956843796    7.77881681578312
H        -1.07915046126024    7.94693023265409    8.78081128006967
C         1.61551367295768    2.32192940830017    7.04482006680242
C         0.73617684624635    2.04612395927596    8.09379080601584
H         0.38019022324380    1.09126117570431    8.42095687074097
C         0.41027695138502    3.27562076027880    8.63748737460282
C         2.24676632072003    1.35364551481295    6.08129060170378
C         2.01263543462644   -0.09124384048104    6.53036852584171
H         0.95126247738545   -0.32492140948822    6.54341798837706
H         2.41895165147079   -0.25581736842462    7.52561996372772
H         2.50291770223156   -0.77582602668696    5.84136728777391
C         1.61236225938353    1.56967446931157    4.70118482332688
H         0.54563351661439    1.36093514446681    4.73898752904137
H         2.06933425533077    0.91221023386809    3.96438629796610
H         1.74566462587969    2.60665111092131    4.38940477706874
C         3.75220962705966    1.61950917901507    6.00419145810532
H         3.92172236333549    2.64803833798143    5.68031117125121
H         4.22441681130470    0.94385589003187    5.29446742932036
H         4.21578744087515    1.48392895392911    6.97852936218888
C        -0.49815417737245    3.56042359151931    9.77910635908893
H        -1.34374936381813    4.16422440634266    9.45482888245738
H         0.02461551159424    4.10482281313416   10.56313406484032
H        -0.87134896242641    2.62463426283023   10.18717026713466
C         4.46556735518613    6.57275933286279    7.41167015875670
C         4.27997357465094    7.40443568635480    8.51785839729528
H         4.98748223337550    8.07004097235395    8.96722577541471
C         2.97525231683975    7.19313945976841    8.92582193408721
C         5.69180734135037    6.42999626697306    6.55094688953098
C         6.89336510198038    7.12463247298439    7.19757306749329
H         6.71828970379968    8.19327857956138    7.29007048729313
H         7.77933061781710    6.97744073158278    6.58345145647673
H         7.08840383858293    6.71572261549979    8.18622167781150
C         6.00979496618207    4.94465314975160    6.36133629580933
H         5.15287182307945    4.44617569629567    5.90402664941878
H         6.21262597886902    4.47095604579743    7.31894919525112
H         6.87718605599522    4.81802353551548    5.71726202986736
C         5.40154224638251    7.07359429488823    5.18901972291414
H         5.18858791376630    8.13331132522925    5.30893948864756
H         4.53055162827794    6.60054728701636    4.73348114473375
H         6.25680701132054    6.96352166997074    4.52537548565740
C         2.25107411866884    7.83550100328864   10.05387344676541
H         1.89165948209790    7.08880579350261   10.75942058963796
H         1.39244054525317    8.39462940809342    9.68646951968328
H         2.91957817755348    8.51810661795197   10.57208024568977
C         3.92025907016414    4.20874289786083    3.01675518384941
H         4.41544430088265    4.97905218792183    2.41186520658372
H         3.44831641098421    3.48771265344479    2.33737199217525
H         4.69045838517493    3.68029843151477    3.60236645740927

