46
CSD_code = INUXAS | q = 0 | S = 0 | Stoichiometry = C18H23ClN3Rh | MND = 8
Rh        2.71759410503782    2.35497434134102    2.92777139178685
Cl        4.86927848102943    1.51640243706691    2.82507206500130
N         3.05009531971958    2.67524924655650    0.79918451418881
H         2.90828343406696    3.62452176190202    0.44480682931344
H         4.05711945783222    2.44528241022306    0.72769203007399
N         2.25426110295291    1.77891210983549    0.03399769310924
N         0.91937689329753   -3.77796294189630    3.59098385002235
C         2.27201710343547    4.44486118382372    3.76155827245922
C         3.02524386736861    3.74986774841247    4.70830881984819
C         2.32054823022357    2.51185943415897    5.02346405212961
C         1.04780575499048    2.55094014747427    4.36285816422386
C         1.06560341359125    3.67151013250709    3.48906980288204
C         2.54942664779837    5.81400090084714    3.22067204489785
H         2.11670022984085    6.56331330827069    3.88646521967444
H         2.10636851200999    5.94911741211996    2.23582751557943
H         3.61873036568724    6.00115580672080    3.14741974733111
C         4.28965734621760    4.17937363082218    5.37910600263807
H         4.11160581163641    4.30782957847651    6.44764410445321
H         4.65206306545521    5.11890447625832    4.97023033234739
H         5.06640487149996    3.42593687156423    5.25505012351834
C         2.72029649290917    1.60502907164639    6.14583538196047
H         2.54295058383910    2.10534276402515    7.09981997067640
H         3.77869255586579    1.35935870467773    6.08285131157775
H         2.14861868995379    0.68031102218175    6.13311580898069
C        -0.12097876858279    1.65037778199569    4.60762436346815
H        -0.79795000642501    2.13087241735349    5.31630519647331
H         0.19020238364102    0.69839732046568    5.02830697073577
H        -0.67117010759890    1.45457313850522    3.69003982313134
C        -0.09978339042127    4.15432513001877    2.68345510281725
H        -0.75281771776252    4.76184557895592    3.31290654602688
H        -0.67911027609749    3.31734682935830    2.30026018893357
H         0.22084558818373    4.76540094519006    1.84241392425390
C         2.15149033488970    0.60858317827450    2.12077195528600
C         1.90015708371877   -0.53858099561326    2.83999507289069
H         2.05954950881716   -0.56625251636615    3.90960716687165
C         1.45666057556288   -1.70263299797458    2.19773891702858
C         1.29559835248945   -1.71079222596045    0.81500034045121
H         0.95968470048018   -2.60898575017756    0.31833438124068
C         1.58476926610388   -0.57798807929078    0.08110386464235
H         1.47586020952564   -0.60938055390987   -0.99153202180351
C         2.00909865417504    0.58418413694275    0.72024864518951
C         2.63952881781528    1.73395238076467   -1.35994749579790
H         2.75560546810514    2.75566900107703   -1.72473858543814
H         1.85091717663927    1.26245024470533   -1.94082993682659
H         3.57877841303578    1.18908406813528   -1.52048924850279
C         1.17032139745532   -2.85184059150866    2.96061978022837

