74
CSD_code = INUXIZ | q = 0 | S = 0 | Stoichiometry = C24H41BFeN6S | MND = 4
Fe       17.05100110592590   12.69895049613107   14.77389033793751
B        13.95640438083748   13.27100705679269   14.10208296054683
H        12.84862677175152   13.59529534793827   13.86896247885916
N        16.24182482633160   13.79649413344470   13.22623338142460
N        14.91385894804269   13.86740069974889   13.06466667548881
N        15.65381432195566   13.69180798401246   15.89298852601882
N        14.38367856218619   13.79104230045728   15.48059380756163
N        15.24850046612225   11.11031893864806   14.40587020122858
N        14.09877877343238   11.74632396348647   14.09746688223365
S        18.75128215064448   11.44238649493811   15.00807731874566
H        19.70517172254537   12.36482397291289   15.24876946592511
C        16.81314647585949   14.38411030991006   12.16686532998103
C        15.81035650748766   14.83601666976345   11.30694889021337
H        15.92689374616154   15.34637004759957   10.37369615327483
C        14.61626841789428   14.48833486851039   11.91101998443768
C        18.30153616843165   14.46992670091187   11.96482174442479
C        18.96443924099858   14.96489666128674   13.25187350913494
H        18.61781486354829   15.96495795621122   13.50188807308497
H        20.04625695648381   14.98523892146043   13.14244061031465
H        18.70712036952147   14.29459862073480   14.07602049572918
C        18.81676774021529   13.06856346491174   11.61420418236451
H        18.54716333197637   12.36262157701015   12.40023204407442
H        19.89845806788010   13.07611035082706   11.50167418947894
H        18.37256998817024   12.72507059008031   10.68271533004292
C        18.64095217964134   15.43558770701214   10.82581486805306
H        18.23218594361239   16.42401068063408   11.02280571916494
H        18.24401033281034   15.07514863067805    9.88045981675581
H        19.72095361910935   15.52243179264637   10.72863908832907
C        13.23480560702851   14.72364254472759   11.41617971571154
H        12.71548466724596   13.77873582878762   11.26682773743555
H        13.27541754846673   15.25536585057145   10.46905274691773
H        12.66273933470388   15.31480900651623   12.12890371240486
C        15.71765991674713   14.17376033216462   17.14066847891457
C        14.44251992129214   14.59062401099282   17.52775075153949
H        14.14836073543517   15.02305700588353   18.46142544398809
C        13.62059179584528   14.32925658082579   16.44684338683814
C        16.98075382620127   14.18603787566636   17.95806424819842
C        16.79614558105848   15.01473924415967   19.23214152943282
H        16.50373534985114   16.03401658561287   18.99031940500285
H        17.73060171693941   15.04707336964706   19.78810771934575
H        16.03579593552376   14.57535114237723   19.87251904281461
C        18.11946071450994   14.78569310812155   17.13006609564686
H        17.89506310084369   15.81379064908398   16.85531329078119
H        18.24976818837386   14.20346160473651   16.21323650333755
H        19.05137230749924   14.76695811628458   17.69029689599597
C        17.31898697771963   12.73850213908054   18.33533563051078
H        17.43365407624631   12.13530288686795   17.43313751752659
H        16.52029282783615   12.30594949660244   18.93310158483225
H        18.24347248495240   12.69776603602666   18.90659438903948
C        12.15890964972608   14.56932307881195   16.32481116003212
H        11.78968259494638   15.02770342889344   17.23854056830737
H        11.62961009693120   13.63209797596440   16.16274217923710
H        11.94318585097090   15.22922064039655   15.48647597573198
C        14.99346875698126    9.80174852217351   14.36607032825167
C        13.65469164702015    9.59453997588654   14.01673507071521
H        13.13912272661423    8.66451623405183   13.89741491053456
C        13.11867040423472   10.85404319145646   13.85503186901159
C        16.01159338809298    8.73606401010219   14.66364922031736
C        16.58068756697757    8.97653953018728   16.06471332732733
H        15.80298348187774    8.83844385859515   16.81357012694251
H        16.95176353489107    9.99412131392223   16.14506222810678
H        17.39406243205983    8.28511301244533   16.27186786068915
C        17.11113519271670    8.79706405621397   13.59917763526538
H        16.70339211271479    8.53205945986139   12.62542478456639
H        17.91685784889657    8.10771624073777   13.84069078510074
H        17.51418755916761    9.80304854299982   13.53553342780912
C        15.37365364505995    7.34357781939274   14.62922058030695
H        14.97429159245670    7.12131923414664   13.64252739003428
H        14.57087706565715    7.26547503187742   15.35875595482397
H        16.12640793520055    6.59483719215492   14.86772413491878
C        11.72290224561309   11.20556988712282   13.47871836104362
H        11.24036232123286   11.78636697078753   14.26292858626520
H        11.15493234985050   10.29208740156880   13.32131529963375
H        11.70254940620591   11.79286303679806   12.56249034397912

