74
CSD_code = INUXEV | q = 0 | S = 0 | Stoichiometry = C24H41BFeN6O | MND = 4
Fe        9.97802861172780    4.38604557605266    0.47537522855224
B         6.86849619402674    3.44901912411918    0.60335693718561
H         5.75028535503175    3.12075585667946    0.77930504667942
O        11.37019863243987    4.77738186299888   -0.45729879760886
H        12.20685353433945    5.04636128503643   -0.04758449047039
N         9.13522900798950    2.74966815408015    1.40079821353196
N         7.82642222258003    2.48200973636092    1.31329833367509
N         8.42173700075058    3.85199359233855   -1.34466622331616
N         7.21325217552027    3.47154968909670   -0.88934204367438
N         8.35091487794695    5.34099112211508    1.30392242192361
N         7.11193223181139    4.84796274769587    1.18527557313699
C         9.72891745652250    1.70544315489321    1.99131112804179
C         8.75883640115479    0.74671321830199    2.29178496029244
H         8.89613254265238   -0.20191418460155    2.76797461022210
C         7.56190198062190    1.27609102863383    1.84413208821609
C        11.21627229933853    1.61694599808371    2.20513247038479
C        11.56516316647000    0.42054286957072    3.09497037587415
H        11.06381828425710    0.49725603925412    4.05696123698312
H        12.63885289625268    0.38966201171691    3.26809921597379
H        11.27139328344530   -0.51236087784024    2.62120664499739
C        11.88436515765789    1.44542026698673    0.83424684533220
H        11.62276076749691    2.28217083534986    0.18458992544892
H        11.54298813236900    0.52855332270383    0.35957117158713
H        12.96631265295236    1.39983101582415    0.93992543278559
C        11.72425472125609    2.89953963956802    2.86857521227388
H        11.23463813200725    3.05599156557057    3.82669410460010
H        11.50696419183724    3.75477677939223    2.22533926732335
H        12.79870767271050    2.84569236080820    3.02917515392063
C         6.20785667265536    0.66639019135824    1.90897105434273
H         5.81114010148635    0.50745371589153    0.90791316278502
H         5.51766144317262    1.31341038842138    2.44690584373208
H         6.26573236631480   -0.29132061982408    2.41974298137920
C         8.38924071544800    3.77357618110260   -2.67119581264898
C         7.12630448412228    3.32734575343124   -3.08305551614566
H         6.77576228894390    3.15750739507605   -4.08013490881708
C         6.40667093610627    3.14631667475103   -1.92077510262267
C         9.55975951748935    4.12687163044690   -3.54607873503326
C         9.19638499287094    3.97176629789952   -5.02562483570309
H         8.92300455830975    2.94367693514747   -5.25232060759953
H        10.05132572216896    4.24082415776429   -5.64311610322505
H         8.36604838384732    4.62231707900407   -5.29112653864090
C         9.95945312284754    5.57962304699571   -3.27220751164342
H        10.24496558142546    5.67953054719388   -2.22961885476174
H         9.12489769233551    6.24796170371581   -3.47418956358796
H        10.79887962367602    5.86752141801496   -3.90192361958089
C        10.72714195653422    3.19384855546514   -3.21091743471415
H        11.00816372524235    3.33452608787495   -2.17180966641599
H        11.58323138969889    3.41466422599701   -3.84536055108767
H        10.43935157593417    2.15521787251951   -3.36079767523471
C         5.00106664525799    2.67823159141346   -1.77959907742925
H         4.95272085532734    1.76306980988488   -1.19187806180407
H         4.58749968028249    2.48234337141072   -2.76575651930589
H         4.38691198545643    3.42907397514082   -1.28533214485243
C         8.25267998597859    6.58394369955307    1.79072070925200
C         6.90313121585014    6.88544272965987    1.98676696274740
H         6.47946894227118    7.79266605249778    2.36488273015648
C         6.20865447071745    5.75750160884950    1.58856350434547
C         9.44257045682320    7.47893493426974    2.01201928940606
C         9.04464794312000    8.71837431134909    2.81865424473263
H         8.61398014446514    8.43270830312063    3.77552435890834
H         8.31985722424585    9.31798874185541    2.27452521065834
H         9.92170656381204    9.33426589038606    3.00614535305226
C         9.97546726001505    7.91227305959508    0.63978147730651
H         9.21474204838978    8.46845297532090    0.09711076527980
H        10.24092261488161    7.03444084739538    0.04881342001640
H        10.85330105616423    8.54497153075178    0.75391630556237
C        10.53178893439083    6.71658470489548    2.77069622970611
H        10.16128698862693    6.37600073694064    3.73449648265765
H        11.39889509339039    7.35267118372189    2.93390990580258
H        10.83916026688388    5.84389464448830    2.19086200760583
C         4.73833620898358    5.53977484703772    1.57870382931911
H         4.38695729547564    5.35322084366045    0.56558530054020
H         4.23824018215525    6.42308046668991    1.96743999368718
H         4.46969950324224    4.68226611107027    2.19283767400185

