77
CSD_code = INUXAR | q = 0 | S = 0 | Stoichiometry = C25H43BFeN6S | MND = 4
Fe       10.51118992317456    0.50462167687417    3.15033391308227
B         9.99693361372005    1.36245996469913    6.24192546214821
H         9.92490630474171    1.61695568813582    7.38975958118804
S         9.99013568043971    0.50017991249070    1.11872707571916
N         8.62907246482882    1.76310222551399    4.14721268511746
N         8.79187268949111    1.91434122632199    5.47757844976498
N        11.67901157255499    1.66794226607945    4.40604023514350
N        11.27656589096458    1.96474715695558    5.64859599211441
N        10.32554709318570   -0.69191113664559    4.84558642932578
N        10.05100980392667   -0.15679703221868    6.04171980676591
C         7.47797854882114    2.35508601505788    3.82683285405973
C         6.89085829559023    2.89701706685886    4.97564100627606
H         5.96837424448054    3.43318780292732    5.05717920946128
C         7.75602928920389    2.59609003495065    6.00534197853650
C         6.92331292579065    2.41492828379564    2.43095154151978
C         5.58087663220986    3.15265049750864    2.40336417581118
H         4.84589065274108    2.64847645386304    3.02664686080555
H         5.20289460365854    3.17815712444135    1.38323654523523
H         5.69182627094381    4.17715577062031    2.75104533521976
C         7.91585449152512    3.17153782767404    1.54375301085043
H         7.98409121944970    4.21019250756886    1.86152955721763
H         7.59875741088779    3.14345591402965    0.50394760283877
H         8.90045983388106    2.72112508027593    1.62637247522807
C         6.70646662567841    0.98474001844997    1.92883906964837
H         7.62377714295723    0.41341900467967    2.03805379493722
H         6.41177121356772    0.98700473375418    0.88207911569124
H         5.92635794854516    0.49873714737730    2.51164703728697
C         7.60920864887375    2.94149401650471    7.44520931285981
H         7.57860739114804    2.04448247064567    8.06121929139182
H         6.68367199807168    3.49395650944552    7.58693682150225
H         8.43967512749370    3.55710338621871    7.78624911788365
C        12.78952939053461    2.37371146922163    4.15789276806727
C        13.09599002675678    3.14383073919182    5.28116436783606
H        13.91764378889031    3.81685861445804    5.41234085577637
C        12.11004293930516    2.85841098522907    6.20767568944592
C        13.51808123475464    2.33365693761832    2.84221846705382
C        12.66853362376821    3.07647413744302    1.80358495089123
H        11.67897747464809    2.62227455512986    1.73807264728581
H        13.14276960317495    3.04116683120834    0.82499148122008
H        12.54509001347718    4.11781966589231    2.09139862763601
C        13.71084306024692    0.87766063014278    2.41360851578437
H        14.30513231367374    0.33772673542974    3.14718369879772
H        14.21148294155811    0.82310145147757    1.44955923972347
H        12.73423569205077    0.39244978319708    2.33210214661111
C        14.88771026383793    3.00840185461720    2.95732242659349
H        14.78085611652266    4.06316983894932    3.19627172245578
H        15.41850554809503    2.92743060070355    2.01102138064538
H        15.48777063034915    2.53361351519250    3.73023511390766
C        11.95160881506647    3.41501833817924    7.57669811901174
H        11.01036678466460    3.95469050178476    7.66378381064261
H        12.76952981478128    4.09979814938195    7.78535139552490
H        11.95675401290366    2.62129422372759    8.32137921314344
C        10.26982570422671   -2.02358298063329    4.97292929105622
C         9.94430871999336   -2.33886745158326    6.29294681610210
H         9.82103076517577   -3.30993180576310    6.72554319034707
C         9.81105485771959   -1.12492859465359    6.94207897084739
C        10.51798558492664   -2.96702293327508    3.82814936770099
C        11.84831367148538   -2.59696668569399    3.16708606205626
H        11.82565093193151   -1.54366532453954    2.87427487913468
H        12.02582078748743   -3.21125648232509    2.28676532885692
H        12.67256127121611   -2.73845773099493    3.86263044332744
C         9.37109481330063   -2.82235173375410    2.82135776000724
H         8.42672524445350   -3.10153129218471    3.28239121500139
H         9.53747402605840   -3.46029928142291    1.95594425303993
H         9.29330216902915   -1.78470913242009    2.49033267903344
C        10.58379884316424   -4.41612861495793    4.31714045128219
H        11.36463101827070   -4.53681359729057    5.06450569918053
H        10.80319080667451   -5.07683590992345    3.48099620049745
H         9.63475136154567   -4.72052023241104    4.75076215738406
C         9.46387459890567   -0.88124380727223    8.36655936511758
H        10.24526001404572   -0.30958993648413    8.86380538331505
H         9.34368517529212   -1.83309830835967    8.87742808127062
H         8.53377395749256   -0.32106550952888    8.44352559860637
C        11.20094460295707   -0.36670198416567    0.04945748966334
H        11.98321568793233    0.32901300873940   -0.23801258518745
H        10.65705257578966   -0.69120171682836   -0.83280255614571
H        11.62483316934149   -1.22784113536839    0.55659247585328

