75
CSD_code = IPABUW | q = 1 | S = 0 | Stoichiometry = C38H32O3PPd(1+) | MND = 4
Pd        6.85544399019272    6.76652901601228   15.64585407795521
P         5.37426745840518    7.48729647441957   14.13149226522505
O         8.43747863174436    6.06416101764985   16.83366460169364
O         7.02535995652116    5.08780406982816   14.49261906230110
C        10.29723054479515    4.78530039554659   17.52244735928958
H        10.34852473753705    5.56668881347564   18.27573522679489
H        11.23187150021622    4.75138113101047   16.96780774568948
H        10.15696046498082    3.82169450996554   18.00727495185157
C         9.15063232140057    5.05722463265449   16.58041025935669
C         8.96948857238484    4.16017773762251   15.51982382691543
H         9.66748547585027    3.34261921999208   15.44113849624763
C         7.94598244280060    4.21699235420720   14.58053757410406
C         7.89730847849742    3.12040063509370   13.54325763642534
H         7.08630589052786    3.30629296485785   12.84424456328115
H         7.74168934495898    2.15950861972566   14.02872779589494
H         8.83971409124662    3.07951432064599   13.00275621390909
C         3.77622615753973    6.71192008338758   13.82372250119528
C         3.76002016211189    5.47255293642905   13.18427473008009
H         4.69437027441396    5.03202594156501   12.86335617593900
C         2.55685140977249    4.82687100213705   12.97154194274969
H         2.53800038663868    3.87150704210443   12.46964876372028
C         1.37309361393103    5.40650827557657   13.40460612264052
H         0.43445161508842    4.90200634018486   13.23478808151820
C         1.39155488040830    6.62761177012571   14.06053644360969
H         0.46862510797929    7.07044762162282   14.40303661690284
C         2.59086855588335    7.28232337557709   14.28029901630578
H         2.61458467052485    8.22915232078499   14.80119522304684
C         6.29304767874598    7.51737314718307   12.56477767205461
C         5.68775717174001    7.46149505131716   11.31484462497202
H         4.61537826682796    7.34915711872473   11.23736094348661
C         6.46708706733160    7.53668335468526   10.17285163274952
H         5.99969864332596    7.48752046714455    9.20125029558014
C         7.84179335117364    7.67273595020316   10.27471864874475
H         8.44465472501085    7.72658123106160    9.38139586109956
C         8.44786450464720    7.73713163662684   11.52116416197761
H         9.51972084090520    7.84307371379521   11.59489660725165
C         7.67809361620785    7.66122549311949   12.66673985249172
H         8.15412530102416    7.70592111765179   13.65775626155098
C         5.78399681715721    9.72481277644603   15.58455703744558
C         5.64116296185729   11.09397602445742   15.94227300128001
C         4.85883336232677   11.93370625907725   15.09981677859648
C         4.22577894726202   11.39534154148292   13.95723240130484
H         3.64625888038847   12.05460170098939   13.32852599231420
C         4.33352410773962   10.06952384603091   13.65838218493940
H         3.84386612213703    9.64622715176371   12.79339075958752
C         5.11023490906054    9.23692035286052   14.48539005403411
C         6.21446473606397   11.65379064258919   17.10466044812742
H         6.77929730748042   11.02314952406948   17.77332673828263
C         6.04914318614194   12.97885632323477   17.39949228708090
H         6.49059180874690   13.39086319758981   18.29395240872053
C         5.30510817307539   13.81220118633591   16.55157571702081
H         5.19145675733462   14.85657851144794   16.79768616200609
C         4.71872388115117   13.29758686630505   15.42942639323962
H         4.13021217457223   13.92679685513448   14.77859612060281
C         6.60074144663648    8.81671647738834   16.44078070292847
C         7.98103911627272    9.14533047333626   16.70896271696067
C         8.59784829046551    8.67814644872595   17.89869245117105
C         7.84029684683135    7.89270808049652   18.80589175489805
H         8.29956401784849    7.59200643305926   19.73561591026645
C         6.56521427612743    7.50302992588493   18.52203817095554
H         6.00987123355008    6.90250791506527   19.22687573884478
C         5.93234725635484    7.92614541608530   17.31972596179332
C         8.73013812261250    9.92745209614825   15.80872472447575
H         8.25704262041612   10.28396895179299   14.90366286741452
C        10.04262239091508   10.22629928744218   16.07461922758822
H        10.61349797936475   10.81628520036053   15.37429033723936
C        10.64980247774113    9.77198521153782   17.25052452277506
H        11.68135343743912   10.02027964974792   17.44663028804079
C         9.94039578182512    9.01535331358627   18.14684830250764
H        10.40628690551810    8.65840246855319   19.05324433311220
O         4.60411325598925    7.69989102215619   17.06532160397850
C         4.11918261459677    6.40880619651682   17.42006410897565
H         4.81147424301965    5.62269039447974   17.05443003276167
H         3.15583520614964    6.30649349142255   16.92261660028558
H         3.97666644451589    6.31335788265181   18.49940132186314

