89
CSD_code = IPACPT | q = 0 | S = 0 | Stoichiometry = C46H40P2Pt | MND = 4
C         1.32320931857013   -1.36529118037393    0.62716443268533
C         2.97305519592622    0.34080418294066   -1.44056782518841
C         2.41116663040956   -0.59575616216734   -2.30502939370812
C         3.22121355644465   -1.41007324534547   -3.07072075970118
C         4.59997612327296   -1.29931652889575   -2.96709500696874
C         5.16124775763187   -0.37663278157915   -2.10046108844884
C         4.35203572286737    0.44717455842661   -1.33578644657052
C         2.14311012850400   -2.18811215589682    0.97383008224303
C         2.67784730554517    1.97366933326474    0.93693576937984
C         2.41952541536595    1.42858781017785    2.18922703341010
C         3.09123928466766    1.89976224724597    3.30262311591729
C         4.01992602176865    2.91894181419993    3.16901617921644
C         4.27051772572297    3.47404250853281    1.92346751249915
C         3.59966579640798    3.00862476643166    0.80757215854629
C         3.11802624007431   -3.14533442814025    1.34810917961108
C         1.53282442724934    2.80666564780034   -1.49760794648947
C         1.99171846948261    2.92973989243223   -2.80242539542787
C         1.71734636202407    4.08031999898205   -3.52210587188876
C         0.98171893577350    5.10307528650950   -2.94805550836652
C         0.51355860382675    4.97828946745566   -1.64862869473661
C         0.78413863236102    3.83311784010874   -0.92696299488037
C         2.91326288315673   -4.00203334042389    2.34714524448929
C         4.38529575336603   -3.11379452632108    0.54081208474371
H         1.32564968116093   -0.68128415206725   -2.34872726082738
H         2.78500768867258   -2.13793603506996   -3.73936513908839
H         5.23833771132364   -1.94136424454527   -3.55647977493452
H         6.23581466523692   -0.30218035025157   -2.01471601926378
H         4.79181021558809    1.15818533329211   -0.65063538217117
H         1.69335535593664    0.62636891509796    2.27303161816668
H         2.89089238600997    1.47374579891309    4.27471509888849
H         4.54667229710188    3.28749110124243    4.03710813229146
H         4.98954368606791    4.27443581735996    1.82377333314393
H         3.77946903321042    3.45199370264108   -0.16308478296163
H         2.56227534337105    2.12921170639971   -3.25368803664012
H         2.07672263299370    4.17612045450044   -4.53672326217488
H         0.76586682860831    5.99630860613880   -3.51600996032208
H        -0.07062603653243    5.77078166405625   -1.20498382190690
H         0.41207701637414    3.71568100311143    0.08239600311352
H         1.99382192881209   -4.00221228959982    2.90907452413965
H         3.65850011420516   -4.72692447746963    2.63302175865105
H         5.08560811953631   -3.87246516453152    0.88464692860663
H         4.16251187776619   -3.28312772341040   -0.51330818007671
H         4.85389694353167   -2.13200428088144    0.61984395906943
Pt        0.00000765165026   -0.00024008552820    0.00001271482985
P         1.77078694459089    1.31157444657201   -0.48794668614340
C        -1.32364998637063    1.36443366825590   -0.62712181222124
P        -1.77118411427124   -1.31108415067821    0.48810261067545
C        -2.14459885913300    2.18612937151568   -0.97408458210066
C        -2.97386069823707   -0.34002949073998    1.43994948293967
C        -2.67647262284712   -1.97354028558052   -0.93754509858758
C        -1.53380644090637   -2.80579379618108    1.49848440334555
C        -3.11943870221592    3.14354849708076   -1.34820239486601
C        -2.41229496687297    0.59646092114504    2.30469524567474
C        -4.35276728775247   -0.44646094832391    1.33471872641232
C        -2.41440417032713   -1.43112554017920   -2.19019848048979
C        -3.60023423841027   -3.00677016280071   -0.80832097423805
C        -1.99157633105972   -2.92702893980673    2.80387842072881
C        -0.78666383519608   -3.83359371610996    0.92826361034138
C        -2.91349363642237    4.00076933058314   -2.34653996021044
C        -4.38698500322050    3.11229837764149   -0.54141880122694
C        -3.22262791078830    1.41065808856049    3.07020693639033
H        -1.32679173428155    0.68200532991229    2.34881698307641
C        -5.16226657505076    0.37722060921404    2.09921056732553
H        -4.79242218162378   -1.15728276461272    0.64930845654078
C        -3.08443688540305   -1.90322111876897   -3.30421469005626
H        -1.68664833092144   -0.63028708935668   -2.27381049542513
C        -4.26948994292592   -3.47300903345617   -1.92478628778177
H        -3.78258547969869   -3.44802256454430    0.16282510410653
C        -1.71747391927515   -4.07695167401779    3.52467313404266
H        -2.56113588235023   -2.12553838942974    3.25468963957378
C        -0.51633985422000   -4.97812965030649    1.65105329935194
H        -0.41562790379571   -3.71783726213101   -0.08166601777271
H        -1.99369485384165    4.00018958015642   -2.90788890611474
H        -3.65780409771799    4.72647517318555   -2.63270164940832
H        -5.08615907490313    3.87255225527935   -0.88407133357757
H        -4.16423417314667    3.27936905142935    0.51304589149970
H        -4.85710386463545    2.13140915312871   -0.62230922222142
C        -4.60135474218120    1.29985090644493    2.96614000056305
H        -2.78666553049419    2.13842920311164    3.73911567575786
H        -6.23679678214793    0.30264037572198    2.01313248271424
C        -4.01516391780151   -2.92055322514697   -3.17075770261315
H        -2.88119938398526   -1.47942571284696   -4.27667518073200
H        -4.99008671842265   -4.27199374322593   -1.82522805072400
C        -0.98313955190139   -5.10093538364223    2.95115689247447
H        -2.07588664216526   -4.17119042144027    4.53977453494334
H         0.06672253832781   -5.77165591477225    1.20777292927658
H        -5.23995043650977    1.94174060689633    3.55543342328480
H        -4.54058798578076   -3.28978348447431   -4.03935940244269
H        -0.76724566499347   -5.99356678766633    3.52004096670678

