63
CSD_code = IPADIM | q = 1 | S = 0 | Stoichiometry = C20H32AgN4O4S2(1+) | MND = 2
Ag        9.71913808938090    5.82323717181628   15.51634480371466
S         6.97811663420004    5.60126549495396   15.50452661431850
O         7.89073995919949    4.49589778664157   15.26410940833612
O         5.66981945408551    5.27751441503779   16.01791530306068
N         7.77255262614697    6.61497391136065   16.47301552056758
N         7.03234517392485    7.49341194938958   17.30359608308045
C         6.78391452986138    6.42185311147839   13.92455284399517
C         7.84822565292981    7.08925853043509   13.34472218710025
H         8.80781257474468    7.16216070356519   13.87104640097272
C         7.68597500420577    7.68389074562831   12.10438183131690
H         8.51722707745569    8.20394075949557   11.65198818526703
C         6.46623965813580    7.61970501772864   11.43650014278502
C         5.40711381820155    6.94541710023253   12.03988034301711
H         4.45605243045828    6.88717760065635   11.53250739616303
C         5.56370272575141    6.34731726266424   13.27687955594605
H         4.75540547444555    5.81600057652335   13.75421379215240
C         6.28354004462751    8.25805090370749   10.09713101677334
H         6.01510556268270    7.50737569004330    9.35584945629854
H         7.19035337826707    8.75961753596912    9.77255099321551
H         5.47477534385999    8.98576344546441   10.13243507914054
C         6.42280049617236    6.75499910389765   18.43316437102614
H         5.74147179982727    6.00950675689722   18.02518969826038
H         5.89062295023978    7.43866978016490   19.09068290099803
H         7.21308350240185    6.24475305504942   18.97928199489164
C         8.00149016892054    8.47657611157725   17.82790129372223
H         8.79284690078695    7.94027001759777   18.34851818066351
H         7.50683690886967    9.17099406552877   18.50383674102411
H         8.44812885103728    9.01233929279026   16.99219753520898
C         5.97232873325362    8.20992006234271   16.56233890033657
H         6.41649513051010    8.71176614302474   15.70432401039299
H         5.49126665250518    8.93983004046038   17.21051935576533
H         5.23887710296507    7.48468834971027   16.21425242373158
S        12.40172220732745    6.07290241879502   14.96801210896046
O        11.47246372281387    7.18842689025886   15.03848736985000
O        13.79130404370114    6.35375001753178   15.23310802906218
N        11.81108633954382    4.95385850393503   15.96584732092816
N        12.69591204834674    4.00105218439153   16.53034130424832
C        12.25768689762160    5.42530097522850   13.30447497677706
C        11.08889952496086    4.81209189179636   12.88915447997266
H        10.25645879109066    4.67641949917270   13.59039049628077
C        10.98677290823078    4.34980829224321   11.58756905946013
H        10.07491116741256    3.87007879285738   11.26443553353464
C        12.04581896076824    4.49123088760840   10.69500968636168
C        13.21400878720838    5.10944412959965   11.13472993298250
H        14.04223374873134    5.22761938349049   10.45258749829059
C        13.32063105045144    5.57663600143240   12.43211095340730
H        14.21608023249365    6.06295136143029   12.78592686412597
C        11.93983930610413    3.99961245776552    9.28731587217411
H        11.93594559616692    4.84211229291683    8.59701174258488
H        11.02931127056295    3.42672967272060    9.13776452692957
H        12.79482299292990    3.37514951978881    9.03631386176859
C        11.84380115398567    2.95731701188421   17.13481451338698
H        11.17779335918975    3.42780857432586   17.85598637870489
H        12.45856008496333    2.20372275922469   17.62269648363081
H        11.23384629354483    2.50412861717060   16.35537863633613
C        13.53114997005505    4.62293731297414   17.58315015591232
H        14.12277496391506    5.41482012421816   17.12564953552896
H        14.17909251475027    3.87970596053477   18.04225945839550
H        12.87450265119386    5.06385432680995   18.32986438455794
C        13.57455193188285    3.37838140341175   15.51702738826535
H        12.95925120137707    2.96496145213490   14.71963099784644
H        14.16979193491775    2.58949165198957   15.97276473247915
H        14.22936993382417    4.14425314074450   15.10503135410177

