74
CSD_code = IPAFIQ | q = 1 | S = 0 | Stoichiometry = C31H36N6Rh(1+) | MND = 8
Rh        2.12655183741785    5.57433867073611   14.27762582686541
C         0.93361619760982    7.20872639325816   14.16161833976479
C        -0.11665817530575    7.84606196567262   14.81151268504196
N         1.34615885855992    8.14879271894507   13.26424027284170
C         2.47393908167989    7.87764272317296   12.49698410447837
C         3.07355576220220    6.65680396509503   12.83550864611894
C         4.20151463510363    6.30746439237427   12.09968403635147
H         4.72072771259277    5.38250955635926   12.29924649086586
C         4.69291194925759    7.14055522610976   11.10713759951331
H         5.56784309467296    6.83892383173365   10.55095451598036
C         4.08160659393595    8.35187170674448   10.81661152094562
H         4.48025822329722    8.98951463299674   10.04364305971418
C         2.95421770500337    8.73286224567838   11.51591536458866
H         2.44226973214227    9.66094309977130   11.31543188630098
N         0.64942700175647    9.25090377528536   13.29055677762519
N        -0.24379441888184    9.06850477790182   14.23295323670014
C        -1.20736571650812   10.09634109255806   14.50371726747374
H        -0.97864023757707   10.93968956009992   13.85567645560811
H        -1.15322522761713   10.41148167957976   15.54591447990316
H        -2.21623245161838    9.74152075076141   14.28831930041313
C        -0.93136383896533    7.40992385583915   15.97413114307030
H        -1.15011119693226    6.34760580944325   15.87260109799075
H        -1.87710198826577    7.95353530080581   15.99186619915421
C        -0.19803303904316    7.63841753767728   17.30552944955265
H        -0.90782596286255    7.44635716140574   18.11091481329653
H         0.11000813656544    8.68361710447503   17.37898707972430
C         1.01144486536136    6.70650313424255   17.49959023144373
H         1.17432144292377    6.56535059228506   18.57135794875240
H         0.78098215104725    5.73657059628052   17.05808586278639
C         2.28362465019048    7.18193757580251   16.89167568463501
C         2.96076432809876    6.74433097813874   15.74465390289472
N         3.04913004680745    8.14452134633412   17.45547117576702
C         2.82979270585394    8.88177662285616   18.66587677225017
H         1.97052662810586    9.54505562140763   18.56834836705705
H         3.72198390841553    9.47363586891512   18.85896054116601
H         2.65660569998223    8.19841040963262   19.49726877197897
N         4.13232681860868    8.35502563760919   16.76239989147792
N         4.07903013406079    7.51775609189801   15.75180844095646
C         5.18268171201385    7.48018442499707   14.86739187776019
C         5.87538751936865    6.29033507701673   14.70055191095651
H         5.54381752648928    5.40384643448263   15.21742432285477
C         6.98833460098724    6.26766557974323   13.88001200129635
H         7.53992953166619    5.34913680813009   13.75079435587739
C         7.39946656105657    7.42161994984979   13.23353268955688
H         8.26831013941676    7.39945385746163   12.59436874743357
C         6.70543540503719    8.60682973088788   13.41349276553163
H         7.03035884172528    9.50602743507223   12.91447185154290
C         5.59803677908299    8.64528917260771   14.24085109403651
H         5.05410501867709    9.56326344154961   14.39871074861071
C         2.27875290162472    3.67618672205219   13.09648766167553
C         2.96403046199453    3.52480064642643   14.33851100658937
C         1.97080853913138    3.57579758526464   15.39336120267191
C         0.71105419583917    3.83026603718803   14.80993295708544
C         0.91068239945171    3.97278712523925   13.38368433690536
C         2.80870133853070    3.36666044150774   11.73186174117073
H         2.58805270975190    4.15715643435748   11.01710480905097
H         2.33400817213504    2.45055345952237   11.37705247280192
H         3.88223140683117    3.20456639700258   11.75025751959974
C         4.33508092048659    2.93860052654583   14.50864353709144
H         5.03464780885663    3.32759280849599   13.77208491518547
H         4.27979215024923    1.85559068113828   14.38159680307259
H         4.72957245690218    3.13576582956486   15.50293720866421
C         2.23399182389985    3.16183637234384   16.80932120636258
H         3.11559330421481    3.65279333493078   17.21840214085185
H         2.41007978848502    2.08531546872170   16.83465218554854
H         1.38687696892604    3.37756358759030   17.45546610940343
C        -0.62750909138093    3.65956856621000   15.46204387699588
H        -0.61211816181822    3.91835233671866   16.51906587698948
H        -0.92133693974987    2.61087108455832   15.38434291414529
H        -1.39223921264696    4.25068068556517   14.96284920761266
C        -0.18416653860046    4.00209668531312   12.36044912346136
H        -1.03511667566534    4.58983507261881   12.69838943283438
H        -0.52968731004677    2.98377764757905   12.17262432355117
H         0.17176529940396    4.41804854187312   11.42079582417874

