105
CSD_code = IPAGEL | q = 1 | S = 0 | Stoichiometry = C47H52NNiP2S2(1+) | MND = 4
Ni        9.70243327349991    1.61385720742492    3.86285939469005
S        10.45094395427716    0.68488028962351    1.95661753004572
S         8.78454023095478    2.93418451957617    2.30369647589350
N         9.52450224404505    2.09688734849191   -0.11989585511180
C         9.58006799180133    1.92674470236005    1.18778148617334
C        10.23978761706621    1.20634338040975   -1.01126160865254
H        10.50066921232451    1.76295645500721   -1.91314564935128
H        11.16069311516568    0.89314779296751   -0.51243696198045
C         9.39878510718375   -0.02271065013595   -1.36428855688953
H         9.12744491572048   -0.54296461641359   -0.44485095258428
H         8.47436252460071    0.30705604914661   -1.84451473575517
C        10.12721505836990   -0.98258677094682   -2.30417943546682
H         9.43194795997388   -1.78045660415083   -2.57255865430309
H        10.38859778220475   -0.45153455603050   -3.22236923213415
C        11.39378916157706   -1.61566628804532   -1.72373415476322
H        12.14884283283045   -0.84854706475113   -1.54167040506351
H        11.79942144515029   -2.29190668324207   -2.47879017182920
C        11.14650560157040   -2.40235405677992   -0.44107257445783
H        10.90509760771450   -1.74561018840209    0.39174007300099
H        12.03608362092764   -2.96536189884689   -0.17038365791379
H        10.32834222221212   -3.10563802542126   -0.57799474924343
C         8.73398640780898    3.17860048620027   -0.67225076378919
H         8.42849544638773    2.89958875100740   -1.68150857678264
H         7.83737878508627    3.29219287684221   -0.05627175488645
C         9.51240387344132    4.49890370559508   -0.69092626355295
H        10.26640077143104    4.45829375971881   -1.47941019427116
H        10.03223532506315    4.61712208096279    0.26250986348540
C         8.59845144241236    5.70497607040259   -0.90867967298475
H         9.21727304044165    6.56354038362010   -1.17562139754470
H         7.92861209281332    5.50841964673073   -1.74839935983800
C         7.77879524719195    6.06572853750288    0.33021725651012
H         7.11376410525120    5.24202848386035    0.59714517596378
H         8.45292790140229    6.22599883122553    1.17516957988318
C         6.94667111967474    7.32084001099724    0.10158380411813
H         7.58755480031501    8.16468990229054   -0.14219907677511
H         6.37826271130775    7.56955245819376    0.99423789280169
H         6.24987804250797    7.17321627919297   -0.72021127804294
P        10.99693910684737    0.34166748888619    5.08955577952597
C        11.62247514753648   -1.22960974954781    4.41531587226903
C        11.13982899105426   -2.46106446832652    4.84648021631194
H        10.41019217655525   -2.51131872852946    5.64137291282887
C        11.60787240273655   -3.62690677629521    4.26681444571637
H        11.23547538972116   -4.58009040433073    4.61050052929134
C        12.54755854033759   -3.57458288767378    3.25060433698546
H        12.90621448461447   -4.48685506934809    2.79930923144553
C        13.02727979844332   -2.34967877822904    2.81546097312737
H        13.76220825439026   -2.30346163451582    2.02615079722357
C        12.56566997540137   -1.18079081228844    3.38942220234863
H        12.94286047403267   -0.22640178948339    3.04926241651850
C        12.48891206175136    1.37930465429769    5.11998250401003
C        12.38743431028941    2.64684721762588    4.54845158795258
H        11.42451731531251    2.97184667928675    4.11409859046610
C        13.48489291366397    3.48671695311507    4.51148055824415
H        13.40524161527133    4.46788472003601    4.06767964475741
C        14.69190664062886    3.05924272627360    5.04286797455952
H        15.55070739036571    3.71223282408622    5.01814457925936
C        14.80517982470805    1.78991578056757    5.58917270995992
H        15.75297472554409    1.45584530813738    5.98319795936118
C        13.71117349834089    0.94344507852659    5.62317409673135
H        13.80486669502976   -0.05801087829547    6.01940892942402
C        10.57645570153987   -0.08191741731981    6.80703635838234
C         9.35092949775711   -0.71020975166500    7.02032092200386
H         8.68615152616626   -0.88031965049922    6.18315676319372
C         8.98145105271931   -1.10538519179392    8.29171031043270
H         8.03419218098048   -1.59921943417014    8.44834446628310
C         9.82749406245142   -0.86447915914820    9.36205693678908
H         9.54326324056659   -1.17467873098075   10.35568090021730
C        11.03418618843263   -0.21723778318574    9.15738788294124
H        11.68822045884058   -0.01801855905109    9.99259203136574
C        11.41157810387427    0.17668559513423    7.88569795143459
H        12.34880333943673    0.69124263539288    7.73843460920590
P         8.53527837251031    2.59414908399986    5.43991956546981
C         9.09422157510828    2.67473613615009    7.16835749639379
C        10.34290322704036    3.24763915193732    7.40225574243220
H        10.94952969714731    3.56526615758133    6.56389268449563
C        10.81045557049513    3.39867613676024    8.69364515557192
H        11.77500271369136    3.85156736482734    8.86760223789658
C        10.04048935263010    2.96605392890384    9.76105092361726
H        10.40086237003021    3.08666962342590   10.77094429498684
C         8.81271410565547    2.36917621821052    9.53042000629015
H         8.21850644581821    2.01873301062630   10.36056269930394
C         8.33713486617783    2.21956268102884    8.23954126507108
H         7.38444734916458    1.74165946148837    8.07012480781946
C         7.03770636875452    1.56652414393256    5.37774539659102
C         7.07797812153331    0.44584855312447    4.54920267964798
H         7.99876662704093    0.22277125627229    3.97962035867636
C         5.97128138785535   -0.37353043974635    4.42734598410520
H         6.00363221645727   -1.24023612555115    3.78414344779918
C         4.81585731584904   -0.07223146253000    5.13179290353191
H         3.95030786913943   -0.71039457731523    5.04165664285591
C         4.76153478409049    1.05551248600843    5.93656026109953
H         3.85220497511195    1.29568748387782    6.46630471098979
C         5.86449662863424    1.88238817015292    6.05680017482581
H         5.81349162414070    2.78020447466612    6.65682306738936
C         7.89010578059021    4.26969876733988    5.13515857165900
C         8.46635011611978    5.39346013315373    5.71915510276093
H         9.27072556685619    5.28373251997330    6.43171848024803
C         7.99874584730644    6.65541544369503    5.39864120626691
H         8.44559644112581    7.52306257632331    5.86010719374402
C         6.96629586364125    6.80831756028760    4.48785319814465
H         6.61048605324824    7.79554313279933    4.23591320538067
C         6.39056124005262    5.69224644542499    3.90290455170115
H         5.58284208854833    5.80586443494647    3.19578848487758
C         6.85009129805033    4.42811689642112    4.21962957318569
H         6.39672446389523    3.55925655911849    3.76325710562128

