33
CSD_code = IPAGOV | q = 1 | S = 0 | Stoichiometry = C10H17N4NiO(1+) | MND = 4
Ni        3.38781976101548    4.15290700882404    4.99493231301507
O         3.98568866262762    2.47925785653528    5.34018962838282
C         4.33158187435295    1.96265844052277    6.45760213664886
C         4.28650173499055    2.61223543440045    7.67553795546334
H         4.57525623001805    2.07033166162597    8.55878934365094
C         3.89797771070236    3.95333120159429    7.80917738290196
N         3.57323563407854    4.70346348028905    6.77490335404620
C         3.19864306591750    6.10022254385322    6.99847063989976
H         3.86169786447302    6.57365149451997    7.72854781890397
H         2.17022297409405    6.15089538533857    7.38177269104400
C         3.29796789275309    6.83781625442900    5.66659552665236
H         4.34927531546741    6.99056812518725    5.40846001489232
H         2.80067066684062    7.81305818997821    5.71868124857572
N         2.69554204472754    5.96273166887466    4.64522395380923
H         2.84922192670120    6.35159882979555    3.71452087788180
H         1.68259660951573    5.93524733210131    4.79343228679631
C         3.87710363206939    4.52312264538437    9.19725298895277
H         4.06127784448375    3.74292185420985    9.92812313880387
H         2.91438836633195    4.98280648515465    9.41293256200210
H         4.65025440608612    5.28283887276550    9.30934288306073
C         4.82736759643574    0.54203547624090    6.39468247010238
H         4.55012338513304    0.09389630883204    5.44492099333395
H         4.41259941345483   -0.04062777946880    7.21130874416499
H         5.91191190780849    0.53314199491484    6.48533682007130
N         3.20813112150114    3.61052713328986    3.12430174602002
C         2.13040423574924    3.73065873936836    2.29094233798201
H         1.23826385965840    4.25576590248389    2.57006643835019
C         2.39344337127931    3.07442647448273    1.12593526932680
H         1.80030750587166    2.94362793900938    0.24538878662670
N         3.64463836112924    2.55638458252601    1.25939295226770
H         4.13345847278610    2.00909332672082    0.56763706541768
C         4.10376295268189    2.89325544545663    2.47198386979687
H         5.06676359926357    2.61264969075739    2.85371376115237

