61
CSD_code = IPAJOY | q = 0 | S = 0 | Stoichiometry = C34H16FeN10 | MND = 6
Fe        8.94602673135748    4.55177162611692    1.55427920965303
N        10.08433894495262    5.05588222091532    3.05022558011610
N        11.35119939017917    6.86277818507183    2.06207882137696
N         9.82040209891396    6.00845579113650    0.43529902664362
N         8.61590232095942    5.68724486781625   -1.60564086555207
N         7.83421283687104    4.08420771320329    0.02702216947337
N         6.58150409230383    2.29570020265675    0.98581852323604
N         8.14400361309451    3.21543617770341    2.58075172347295
N         9.32046489965926    3.48360326482917    4.67246625942917
N         7.28527555878245    7.00351623387831    2.00267716214177
N        11.29130009434266    3.23809171468982    0.23340227926389
C        10.08510985611969    4.47797279563858    4.27526150308144
C        11.07106714815341    5.11609811698991    5.12460177127056
C        11.46188219814153    4.90645794709999    6.43561204946841
C        12.46290505472695    5.71942010405856    6.94251360844422
C        13.05529409530948    6.71108983095769    6.16450794790588
C        12.66799228035139    6.92572102928825    4.85193442675851
C        11.66803343544430    6.11676084886940    4.33893774733642
C        11.02734555271208    6.05634909959797    3.03997356931081
C        10.80001484390711    6.84423989423293    0.86902856679218
C        11.15992520852715    7.73847161178716   -0.21045533979181
C        12.08332065435824    8.76651203228058   -0.31006801464968
C        12.17249235454250    9.43432902107197   -1.51935129248980
C        11.36430623966889    9.08868797056051   -2.60083606154079
C        10.43912174793696    8.06290817663193   -2.51080797469913
C        10.34296894357925    7.38852357549451   -1.30440123500847
C         9.51171065402669    6.29144444886454   -0.85731034163229
C         7.86471275606357    4.69396645934010   -1.20489729747370
C         6.89347276856946    4.05752759122832   -2.07267711655610
C         6.52843845834370    4.28006387263154   -3.38974838721438
C         5.54202939458443    3.46922602866160   -3.92680445052769
C         4.93745435552972    2.46638379625554   -3.17289446342033
C         5.29749125560249    2.23859610955415   -1.85444225866859
C         6.28259467910982    3.04564210075142   -1.31250974895269
C         6.90329402442800    3.10073670746963   -0.00391802833516
C         7.14948640277736    2.35322235404533    2.16303815955893
C         6.79046404105944    1.46865725294762    3.24415818897553
C         5.86462914608181    0.43918712871521    3.34295794834415
C         5.77181975504750   -0.22260142678126    4.55233117468581
C         6.57765590553481    0.12784073843981    5.63816380671490
C         7.50192312797505    1.15104254260073    5.54890466826923
C         7.60214305218025    1.82142958759124    4.33760057846191
C         8.43634507241322    2.91187649894137    3.89581191194373
C         7.97687836673826    6.12117294520658    1.77152714312136
C        10.42073592841477    3.82388905211424    0.69139152695613
H        10.99827011305433    4.13638101907420    7.03115049552563
H        12.79299556780347    5.58337633055627    7.96179134115796
H        13.83282036465815    7.32354403554377    6.59668775666053
H        13.12049694258828    7.69057441307341    4.24171645745512
H        12.70469065596526    9.02748683278748    0.53142192186935
H        12.88227123191298   10.24065977480892   -1.63076470093209
H        11.46477772745289    9.63476496994260   -3.52715522100940
H         9.81024648470160    7.78901746133873   -3.34253657979377
H         7.00249657337868    5.05866528486938   -3.96521206031478
H         5.23303712960535    3.61487235376348   -4.95133934654008
H         4.17241749544962    1.85498025311041   -3.62823117923366
H         4.83453715102955    1.46423480186171   -1.26398739384142
H         5.24780397467097    0.17710094268094    2.49851708868826
H         5.06245138358015   -1.02899796781806    4.66572646298903
H         6.47210633692478   -0.41588792957613    6.56528893478615
H         8.12889152784875    1.42989358282797    6.38041184683906

