42
CSD_code = IPAKUF | q = 1 | S = 0 | Stoichiometry = C16H22ClN2Ru(1+) | MND = 9
Ru        1.33432422661382    0.28355811896156    4.45152424961217
Cl        2.26723382470854    2.40719606810775    4.15364047289845
N         1.04157766966576    0.47291393461109    2.33286060550228
H         0.10653852907026    0.25110868071061    1.98589325870996
H         1.20984031695972    1.47511947536025    2.16207774052759
C         2.05612329205222   -0.30367168955101    1.60712506440610
H         2.13421111542035    0.00943997813355    0.56040252835388
H         1.77749331127615   -1.36295717114840    1.63597266126257
C         3.38649553002422   -0.08754267337844    2.32372257395951
H         3.64832664011872    0.97580700926253    2.29787209147102
H         4.17614600925620   -0.67413812459823    1.84542431681180
N         3.21427018455287   -0.46592030995246    3.73834645076704
H         3.15534514660516   -1.49019635440478    3.77534851564919
C         4.36146737009048   -0.07416751402949    4.57581699093470
H         4.11664046921569   -0.33998950847153    5.60855751550587
H         4.46462375138030    1.01166243409067    4.50741918721643
C         5.66410721440152   -0.76136448974668    4.18137589718904
H         6.42638419169472   -0.53275178575846    4.91998369848277
H         6.02491150630250   -0.41506913810181    3.21755581162261
H         5.54076831305064   -1.84241751617634    4.14824672064258
C         0.60060378775593    0.94845539197542    6.54485963108060
C         1.33780776695811   -0.25090619855596    6.67673954409743
H         2.10578514609713   -0.31784833763703    7.43983354829304
C         0.97942373145466   -1.40805472470796    5.93968967797974
H         1.49530229654481   -2.34339388778635    6.13328009292852
C        -0.11453639140939   -1.38361927247256    5.05965481972374
H        -0.44978000391770   -2.29041267184671    4.57245166702622
C        -0.83171537265868   -0.17398983228097    4.89255538935807
H        -1.71086871578041   -0.15693975673967    4.25618302872998
C        -0.48101660558115    0.97634566373201    5.61692008396455
H        -1.07537740923104    1.87776817155370    5.52185900688389
C         0.93419843508377    2.12935618533242    7.34728781650963
C        -0.07808173253543    2.92988823797196    7.87844515421930
H        -1.11354139228149    2.66316554176728    7.72467784223296
C         0.23941185697830    4.03971006585926    8.63787355551136
H        -0.55086342045574    4.64568064564200    9.05333247590239
C         1.56477406789845    4.37689884470004    8.86050156708776
H         1.80894621760722    5.25058166577419    9.44440884228656
C         2.57605927905540    3.59344009409827    8.32789045570898
H         3.60936291386571    3.85886461896971    8.48988706521108
C         2.26646307358841    2.47214753433580    7.58318161052967
H         3.05911385843510    1.88414259640903    7.14192077321177

