42
CSD_code = IPAKOZ | q = 1 | S = 0 | Stoichiometry = C16H22ClN2Ru(1+) | MND = 9
Ru        0.93782810739922    1.35807419168847    4.02018197359823
Cl        3.14572770266978    2.09287907998355    3.78229269356634
N         0.85734749173574    2.99053716804595    5.41374645185895
H         1.28865770531792    3.80760069333078    4.97269455679855
H        -0.10683112202853    3.23661420216422    5.65442644282083
C         0.61801371320791    1.62730158959659    1.75218021717111
C         1.60957421682672    2.65926392404398    6.63669579489667
H         2.67384582363083    2.81119646046053    6.42751468153389
H         1.31158940304019    3.29170470903464    7.47866718870076
N         1.75495509410367    0.40711250540961    5.76419268165916
H         2.76815079880372    0.54851172167701    5.62860380694576
C        -0.45515582437973    2.23141118966854    2.43683204856309
H        -0.74216368116558    3.24612679075433    2.18205760361425
C         1.36501703146246    1.18613964206246    6.94964592234398
H         0.30192688383369    1.00719605753469    7.14689756519448
H         1.94409374802639    0.89242454291774    7.83024307667898
C         1.52792043824970   -1.03593264228429    5.91086923960043
H         1.82064001294368   -1.50533683917791    4.96796601056914
H         0.46073885281853   -1.20580648510558    6.08030273323029
C        -1.24776776394760    1.49052722419864    3.35358271835442
H        -2.12497983736434    1.95180682480518    3.79477041844445
C         2.34107973115143   -1.66926481485358    7.03720033339914
H         2.25719791151821   -2.75020739816812    6.97525519372981
H         1.98356011287444   -1.36562021580193    8.01662918966523
H         3.39224293613005   -1.40704776502136    6.94369135397302
C        -0.97734319934157    0.13638930467824    3.58855695978283
H        -1.63773837554804   -0.45599336817824    4.20903387346858
C         0.11473744132931   -0.47683995444844    2.92132196578360
H         0.28064743955704   -1.54264163961688    3.03722778742063
C         0.90959787153065    0.25600917076647    2.03087945361860
H         1.71075391563806   -0.23448118118698    1.48897377702982
C         1.40846952240784    2.37926714738680    0.77133520905670
C         1.81894073505400    1.77599938105922   -0.41767622827336
H         1.52900397862529    0.75817587124605   -0.63402576448049
C         2.56105335361626    2.48964562620176   -1.33950576882510
H         2.86471318901642    2.01694651354237   -2.26064887639041
C         2.91854782481983    3.80300277868771   -1.08132887873455
H         3.50734522169955    4.35360418717039   -1.79811689000857
C         2.52316263651042    4.40688808360149    0.10144552696334
H         2.80810491291136    5.42642702392255    0.31058097092877
C         1.76696570240216    3.70467235462460    1.01929318597373
H         1.48632834290140    4.17091634359544    1.95401379979739

