96
CSD_code = IPAMES | q = 0 | S = 0 | Stoichiometry = C35H54MoN2O4 | MND = 6
Mo        3.71274076377777    2.77860666772182    4.01907397452353
N         6.08477981211789    2.95688499167015    3.28172890806005
N         5.28329245261151    3.05741491062027    5.70724179357665
O         2.34397058379981    2.60074920768773    4.93878907819764
O         3.80091756967040    4.39844110121645    3.72652417895592
O         3.44079791038528    2.21886245682778    2.27936332829268
O         4.33378902515179    1.05559479266145    4.44638088334493
C         3.76639994436082    2.99662138245278    1.24210637116186
C         2.81639067310731    3.58470906087445    0.38535231137723
C         3.28613270520069    4.39448996009696   -0.64207532718383
H         2.56467057422442    4.85908042771970   -1.28786317047414
C         4.63318788641902    4.63835460619276   -0.87641633417337
C         5.55057212042297    4.02204875038557   -0.03650113261244
H         6.61168977774498    4.16370542905233   -0.18479259733513
C         5.13422738438975    3.21509200573378    1.00631480689099
C         6.12976286601907    2.50388274304046    1.88604792142001
H         5.89154240750305    1.43128277072275    1.87803463248805
H         7.14598121798310    2.63882270116430    1.47593652410014
C         6.95031947490024    2.13975673547990    4.12305972457685
H         8.00565943920773    2.43332441632927    4.00197302110941
H         6.85778967403924    1.09813797596692    3.80505904369719
C         6.50889142191406    2.25257655423767    5.59537318194989
H         6.30795446814181    1.25196354655343    5.98546741953811
H         7.29580793316242    2.69216101181086    6.22288295803228
C         6.48506443554186    4.36649684743627    3.35770920342625
H         5.68417391846893    4.94962773708007    2.89791248506280
H         7.41542198838570    4.51938398707060    2.78371521486103
C         6.72430134598392    4.86724490541988    4.78509682891193
H         7.70311192069264    4.52533153970781    5.13108512789670
H         6.76789775015497    5.95723906158107    4.74811819719869
C         5.64993703626483    4.47647299164692    5.80635485495988
H         6.03794665534854    4.69171999556874    6.81651535767642
H         4.74574254120717    5.06659198478298    5.63408380944452
C         4.52963691593757    2.60785162631486    6.88311448565263
H         3.62545084316737    3.22776780529474    6.96390825374213
H         5.14108895781538    2.75994039717937    7.79271606624745
C         4.12754577458988    1.14556622130423    6.80509036525337
C         3.84850923806786    0.50250370068822    8.00025682538079
H         3.94228772183376    1.07395553202095    8.91303308017148
C         3.44912193472753   -0.82420187183814    8.04601375104266
C         3.32723847701851   -1.49203157126804    6.83431151391804
H         3.00558894805506   -2.51668941834775    6.84351603676913
C         3.59633032867811   -0.89938383094380    5.61061813484153
C         4.01781321235876    0.44958177248961    5.58329451850831
C         1.32320900229711    3.36073568673448    0.60219643194076
C         0.90803007256780    4.03622836444101    1.91705038305682
H        -0.15956823649171    3.90365452409496    2.08168597242303
H         1.12487192006406    5.10184326356440    1.87301012929686
H         1.44547873013869    3.61723659973319    2.77290603131250
C         1.02799542020037    1.85587280688424    0.66647274244280
H        -0.04088762765547    1.69198920499423    0.78638200802268
H         1.53947306630615    1.39961438180260    1.50968658029672
H         1.35399739763787    1.36779011861909   -0.25079835923957
C         0.46553669600099    3.95113266252435   -0.52487753805229
H         0.73998610683983    3.53169747554783   -1.49041583692336
H         0.55113963733306    5.03411026844831   -0.56495706289496
H        -0.57874192236888    3.70965365152386   -0.33803690761773
C         5.13021004756808    5.53642012279509   -2.00047656655241
C         3.99075150595548    6.16191160119423   -2.80924843442012
H         3.38739762784334    5.39718600376206   -3.29205341301907
H         4.40640953245597    6.80090117876184   -3.58613526528196
H         3.35369188194501    6.77396458455865   -2.17578445645054
C         5.99668686168013    4.70769890023303   -2.95932003795929
H         5.41459988544717    3.88919773240210   -3.37692672191868
H         6.85823292121020    4.28593174256570   -2.44933664040817
H         6.35467633876853    5.33030684457233   -3.77679948572976
C         5.96509759152029    6.67520497017844   -1.39775388032864
H         6.30242029838956    7.35042398492864   -2.18162181948146
H         6.83973957693218    6.29344175464314   -0.87880141540301
H         5.36688663082393    7.24030932870759   -0.68666234378786
C         3.38220044545035   -1.65120165405683    4.29975718110891
C         2.97026350527822   -3.11346328260753    4.50645732983158
H         3.73224585519233   -3.66535220996004    5.05297128427157
H         2.84357336288878   -3.58774275104640    3.53492730999488
H         2.02390934343757   -3.18678844811163    5.03627034001779
C         2.25885575316500   -0.94686350015904    3.52503734708768
H         2.10536582619938   -1.42713386828731    2.55976982040864
H         2.50066930093363    0.10403152072126    3.36097837081593
H         1.33087477848493   -0.99376927402011    4.09116240507535
C         4.67344878386075   -1.64916766894803    3.46859837754802
H         5.49319354434900   -2.08243383994834    4.04050257086653
H         4.93765636076773   -0.63397932759792    3.18450972755160
H         4.53586990851294   -2.23429886173189    2.56097675278575
C         3.15428351528340   -1.47678590510311    9.38889731416526
C         4.41424899405243   -1.42167835461247   10.26470532755291
H         5.23318656088521   -1.94687960675111    9.77755060644594
H         4.22495238700374   -1.89356743086942   11.22679468549643
H         4.72540042581345   -0.39655140733942   10.44442423318486
C         2.01234834034017   -0.71399965672231   10.07445224662755
H         1.76690464116436   -1.17852553837113   11.02758367295813
H         1.12612307395742   -0.72421061129536    9.44432837894059
H         2.28397785007471    0.32139962137666   10.25874958426239
C         2.73408975713265   -2.94309273849416    9.25608548026401
H         3.51869368806704   -3.53510822027128    8.79062250212252
H         1.82183610498672   -3.03568624948649    8.67213280203812
H         2.54292889875395   -3.35624211389242   10.24474464474932

