95
CSD_code = IPAQUL | q = 0 | S = 0 | Stoichiometry = C46H39Cl2N4OP2Re | MND = 6
Re        2.31158303663281    2.28001792964740    2.45562120660112
P         2.41555846616028    4.48923083783990    1.41194162236268
P         2.05581062933138    0.02385430164408    3.36118871196526
Cl        0.38279857703312    1.95593673426560    1.32320334779316
Cl        1.13371776744845    3.17990058560250    4.33457820394027
N         3.86940443834472    2.47380519795463    3.25718214603687
N         4.91767870146147    2.57481731073674    3.87139264227544
N         3.34453017661020    1.44864876543007    0.66537739550573
N         4.65851738589521    1.51990569166059    0.46111264444563
H         5.30412780260346    1.98141064498882    1.13392426917501
C         4.98993464478802    0.94866602229546   -0.70335663481224
H         6.00619384762593    0.91262886015066   -1.03824318590137
C         3.82946086248369    0.48226725814804   -1.28013673108445
H         3.71569374396056   -0.02972424019967   -2.21234748476080
C         2.82283183920678    0.82431479620397   -0.37844585340267
H         1.76822691392741    0.64491028187371   -0.44590722070596
O         6.46007501744816    2.57516227145904    2.19713896328875
C         2.59246583822753   -1.19173448431518    2.12752762777972
C         1.68128559282900   -1.86905208990349    1.32563891046876
H         0.62090098661892   -1.74965460861147    1.50019452634380
C         2.13362523945214   -2.68605909359561    0.30419488160212
H         1.42276781413108   -3.21383858712469   -0.31480473116834
C         3.49136899832035   -2.82135008825506    0.06942454613244
H         3.84061287980735   -3.45878406890825   -0.72935729949144
C         4.40352001236042   -2.12911047625152    0.85146859123815
H         5.46243317230482   -2.22227439657114    0.65931185252679
C         3.95767411758009   -1.31063380770323    1.87046123421349
H         4.66037571786747   -0.74883678421192    2.47315806913838
C         0.44320502970412   -0.59391377327176    3.93023530127409
C         0.31727248294487   -1.94606870532092    4.24508098219769
H         1.16375127174192   -2.60875919504405    4.12575564022143
C        -0.88909891170591   -2.43661479253295    4.70391127264700
H        -0.98643515439218   -3.48579678554685    4.94348760909959
C        -1.97284332045653   -1.58466474315037    4.85852923021931
H        -2.91516715629171   -1.97326693593336    5.21648135023855
C        -1.84505580228196   -0.24001820088784    4.55890010999758
H        -2.68584157111040    0.42590873018805    4.68440420635947
C        -0.63887016745458    0.25948628704354    4.09752285033999
H        -0.53976762451208    1.31069130344012    3.87267540124536
C         3.08587939220501   -0.32801953592072    4.82390054316896
C         3.17705198315025    0.67026024331640    5.79019107993466
H         2.66513461728403    1.61007209799951    5.63228283539685
C         3.91904037144618    0.45950875906981    6.93744643472585
H         3.98557106204194    1.23648044012054    7.68475368816406
C         4.57381258924652   -0.74598116343894    7.12948432818888
H         5.15993550399097   -0.90930350885374    8.02193363251062
C         4.47424516213900   -1.74550194584740    6.17610029488270
H         4.97881386473694   -2.68906940001033    6.32665038497733
C         3.72997672067797   -1.54324064297579    5.02751060831734
H         3.66312575689139   -2.32865875755754    4.28748192632639
C         3.25476898150425    5.82458152821585    2.32409394221172
C         3.55905655313663    5.67401991579631    3.67106597443908
H         3.29751978426657    4.75728162952909    4.18000710855052
C         4.18282752679832    6.70205932785127    4.35706777499397
H         4.42295420752806    6.57898380218428    5.40254689371397
C         4.49540585941149    7.88299471609141    3.70637936191324
H         4.98317339528874    8.68425704251666    4.24196575889004
C         4.17713805934463    8.04208519780337    2.36610526202704
H         4.41344825277017    8.96672449464682    1.85959378629293
C         3.55680166027306    7.01928619319806    1.67534966898023
H         3.30970029534598    7.14237720228401    0.62991923330001
C         3.33597827786752    4.38852566793396   -0.14844097794269
C         2.69739321956938    3.88274352776222   -1.27896763664637
H         1.64511955405030    3.63569195268869   -1.22963380757455
C         3.40672171275826    3.69253920413235   -2.44961908558233
H         2.90551635859296    3.30781228113126   -3.32577458089112
C         4.76037390013332    3.98591057792066   -2.49590388051926
H         5.31286716469638    3.83716337551635   -3.41195647805993
C         5.40669204197535    4.45675188365644   -1.36463709361995
H         6.46547748631910    4.66715907868600   -1.39361131660544
C         4.70191636564872    4.65079981852994   -0.19054336694232
H         5.20896473479173    4.99934235073047    0.69804261591928
C         0.85524075662360    5.31789989236365    0.97802556825932
C        -0.20464981058518    5.22113245749327    1.87429159454762
H        -0.09416600613399    4.63361104664742    2.77545182299567
C        -1.39756563816406    5.86769834379919    1.60836385922611
H        -2.22012928475131    5.78074400859205    2.30275133380853
C        -1.53735683701674    6.62068406198256    0.45471261612044
H        -2.47069820017516    7.12220732035115    0.24378975751827
C        -0.47821352312779    6.73140629398442   -0.43136551013974
H        -0.58353587043810    7.32196168025053   -1.33034755635058
C         0.71730706870140    6.08561295644510   -0.17435911636240
H         1.53492088954579    6.17255669767856   -0.87675514722573
C         6.18932195183205    2.62384793021836    3.40520139860131
C         7.20440170404884    2.74386622058877    4.46265496585558
C         6.84757181776411    2.69148920340802    5.80914320382829
H         5.80832014838840    2.56464897002597    6.07045694623960
C         7.82108811192261    2.79446610664036    6.78308871970984
H         7.54589597379644    2.75168187875640    7.82674783403592
C         9.15201103808165    2.95340036147532    6.42601971323892
H         9.90971962234684    3.03525214849506    7.19162818638563
C         9.51146551062753    3.00661078787970    5.08859229534585
H        10.54831015687847    3.13043849620055    4.81222412329952
C         8.54324254589832    2.90021412268294    4.10901776634881
H         8.80147216088933    2.93772370616057    3.06115450614571

