117
CSD_code = IPAZIJ | q = 1 | S = 0 | Stoichiometry = C60H50AuN2P4(1+) | MND = 2
Au       12.41280487771816    3.01663121501202    5.83917869334556
P        15.39866834068480    3.88383711269114    4.06411763558667
P        14.37710357581897    1.89995444559916    5.74798122588321
P         9.42742253365618    2.15568560217966    7.62009044240967
P        10.44239049768469    4.11922095988969    5.90806340322834
N         9.45726068554699    3.69034978212983    7.15728196291697
N        15.35632141043721    2.34088931635121    4.49833939929405
C        14.41301429017991    5.75688048666596    5.92123501264727
H        13.46843230407230    5.72223025580956    5.39371747474157
C        13.82870224739539   -2.60602201619894    5.27503921502074
H        13.66722379876949   -3.66828241487596    5.16993353817256
C        16.87372853607349    4.07986353476854    3.05471416486048
C         9.41613355238328    3.89494042167219    4.42753543301014
C        10.55024563560299    5.90944417328116    6.08328695493089
C        10.39873213833347    0.26526209765768    5.77025727164663
H        11.35500562180578    0.32145522548138    6.27435750479960
C        16.59779059498980    1.36048805148529    7.32122384731878
H        16.83883107593858    0.63968159477602    6.55125702052736
C         8.07854811389097    0.90316555729964    5.60173199241718
H         7.24335050664375    1.47512957041899    5.98576563282950
C         7.96365242607275    1.97195841630406    8.64777108170306
C         9.30491121068801    0.97115902655199    6.25464918105402
C        13.78324711985620    5.72983108598983    2.70054977382101
H        14.39881643944472    6.50169158823396    3.14033552065361
C        11.97932463513913    5.06979687523058    1.25945529042039
H        11.18743980012247    5.33502113500172    0.57558809856681
C        15.41535643827604    2.08644283545746    7.22528510576411
C        15.50877357285240    5.04473033642393    5.45041371157985
C         5.74418095826571    1.71620210010599   10.26802301681344
H         4.87557298037553    1.61485122291565   10.90067224200316
C        16.84070551726425    5.85893157528061    7.27089783646488
H        17.78151528671322    5.89829914625164    7.79842053547612
C        11.10443330312441    0.34445997047299    8.96883318367791
H        10.51934575330302   -0.44673578743790    8.52177754553254
C         7.72353575304313    3.39781118488515    2.30108508655461
H         7.06179482134810    3.20357524346565    1.47045233915666
C        17.33659550114722    5.34932716904243    2.72429151877677
H        16.82976205822604    6.22529622900561    3.10577101557860
C        14.47876639314198   -0.50173764852747    4.32168851537191
H        14.82757441977056    0.08993040878345    3.48732562814077
C        12.21277717878100    3.73819509446631    1.56196117865544
H        11.61220208896417    2.96770600795065    1.10364775912554
C        17.52166638578282    2.94531244281645    2.58342736932470
H        17.14650467357871    1.97211066305565    2.86372841572708
C        11.01806379523250    6.63983139473348    4.99326954549834
H        11.21077998535012    6.12674449665174    4.05793932845267
C        14.53888358910939    6.52502325307507    7.06562369195100
H        13.68683598297730    7.08208655526133    7.42766956643211
C         7.55657650397316    0.70833908895734    9.06338516428455
H         8.10397203385089   -0.16743008966658    8.74243427692128
C         7.39024320308921    4.36578127851232    3.23713699146946
H         6.47118887858075    4.92297959785836    3.13357651532709
C        15.94935288549399    3.24700355816729    9.25248257195470
H        15.70675083939165    3.98876218934175    9.99921757578994
C        15.09390926445936    3.03318221777131    8.18666419782735
H        14.17647830986662    3.60130061124113    8.08565522948873
C        16.72162948199068    5.08838933863367    6.13000064659430
H        17.55814461623947    4.51207340757730    5.75541798883632
C         7.94434844335243    0.11470141116466    4.47489450869757
H         6.99325032647972    0.05711115409507    3.96791171326857
C         8.23132734523853    4.61281439130516    4.30468286173026
H         7.98270980129349    5.35394085772776    5.05265615132199
C        10.48739125688822    7.90922036815683    7.40265719714143
H        10.27992500551374    8.40839925807781    8.33770365550860
C        18.45605029988987    5.47730060425961    1.92394428405651
H        18.82581240923348    6.45870561139591    1.66799886032597
C        10.83629865223005    1.67390371186999    8.65916447069484
C        14.00334836433748    4.39382903749793    3.02050111100868
C         7.26588811013796    3.10607267837042    9.04219456239369
H         7.59917620071978    4.07381621961673    8.69748834087478
C        11.57928530445020    2.69112923393344    9.24638660516657
H        11.34500166805082    3.72034087930348    9.00285474939169
C         6.15315116615431    2.97355448544708    9.85311652854874
H         5.60349209207620    3.84999240176681   10.16155855251092
C        10.25740957514704   -0.52216287873207    4.64091846901431
H        11.10813869990858   -1.07472991530743    4.26897877972401
C        12.13427971194889    0.04240778659831    9.84174116973304
H        12.35179094884441   -0.98857942934738   10.07841352274887
C        19.10484056003476    4.34594587065488    1.45169112643160
H        19.97817990615161    4.45135801279792    0.82626557786427
C        10.94825769262450    8.63609839884362    6.31700054232785
H        11.10041379788174    9.70104110284297    6.40783246789521
C        15.74966915927588    6.57697591749196    7.73740022861198
H        15.84417385353539    7.17931712484725    8.62822241013408
C         9.03329631582930   -0.59843849606389    3.99626261831215
H         8.92688414022696   -1.21552297004404    3.11697831013914
C        10.29469690553435    6.54299483087369    7.29217120665384
H         9.93392984231843    5.96234845369069    8.12919588415600
C        12.76374345419470    6.06246711168471    1.82706531731237
H        12.58389662305134    7.09856956384036    1.58156673936927
C        14.27355777968980   -1.86453734450394    4.19258760177014
H        14.45899067732732   -2.34967673482624    3.24559829395799
C        12.59769295654119    2.38256762727663   10.12925023375998
H        13.16685320153066    3.17139215679073   10.59661301222108
C        14.25186036469628    0.11356100364654    5.54556488103417
C        17.44595361059903    1.57437417657404    8.39021010432985
H        18.36346717160167    1.01112662985563    8.47277434000513
C         6.44301084552247    0.58512223261323    9.87242632479918
H         6.11697484554365   -0.39201352557751   10.19533959096322
C        13.22250542135430    3.39949920898323    2.44413500086667
H        13.42106028235187    2.36430679259945    2.69431179560090
C        13.79930145298827   -0.63136943673740    6.63226127719747
H        13.62814678796299   -0.13224773808228    7.57930963190186
C        13.59261378552090   -1.99000613408385    6.49577086849065
H        13.24914681611306   -2.57267805511116    7.33767558851605
C         9.74703102739661    2.92394518038866    3.49381443121906
H        10.66681177555640    2.36351666219019    3.61440944712704
C         8.89807403062708    2.67594492536267    2.43031309795676
H         9.14800179770052    1.91427981780895    1.70625235285701
C        18.64025485174024    3.08270331026036    1.78161181871348
H        19.15119234263678    2.20563799566531    1.41405141965383
C        12.87998473343182    1.05786901687720   10.42051759106304
H        13.67961553765642    0.81580465272851   11.10393517740129
C        11.21235432823005    8.00203530935153    5.11136590473199
H        11.56828936217951    8.57322459353447    4.26680789899310
C        17.12130209507871    2.51667821921583    9.35513068831883
H        17.78812006336524    2.68437847660811   10.18751103713550

