31
CSD_code = IPEBAG | q = 0 | S = 0 | Stoichiometry = C12H14CdI2N2 | MND = 4
Cd       -0.22916198238583   -0.07838746450856    8.61475377421434
I        -1.22235308198001   -2.10441636801744   10.06963854920724
I         1.16208055544617    0.42816209056898    6.37379041154830
N        -2.16288352240084    1.37355998431328    8.37041828200155
N         1.00039395872486    1.20446013077844   10.27988371532481
C        -2.31817426740833    2.13355652778204    7.28993154314348
H        -1.49110669284366    2.14796385312102    6.58903094710421
C        -3.46004825769176    2.88225414268609    7.03073207398971
C        -4.48673137637343    2.82468683356531    7.96854490709638
H        -5.39512782381490    3.38843621399496    7.81208708376027
C        -4.33051775385950    2.03883551336854    9.09679991885687
H        -5.10825217308200    1.97242862117041    9.84097518413848
C        -3.15331066275078    1.32749582940069    9.25755611342132
H        -2.99906204627828    0.69625229211266   10.12423028058060
C        -3.58321817128242    3.69634703118547    5.78473041964393
H        -4.02860192426804    4.66507180851556    6.00141308032595
H        -4.22950301312197    3.18381313480195    5.07212928668210
H        -2.61292347622773    3.84437315160550    5.31850466706360
C         1.04910912367583    0.80566392386839   11.54826072460860
H         0.40063027019737   -0.02042924868942   11.81747586206195
C         1.87298295371322    1.38206870772096   12.50720176290987
C         2.68381076761081    2.43785917873950   12.10021938031658
H         3.34591248784004    2.91553485846218   12.80797698412773
C         2.63367740768606    2.86223104569541   10.78433770775358
H         3.25085455897761    3.67583167956768   10.43761313239143
C         1.77891720719100    2.21648705110917    9.90648793155201
H         1.72013687082049    2.51587413052669    8.86715357387216
C         1.88398804208064    0.88917992027775   13.91710745453415
H         2.90505660914211    0.70711871472954   14.24705292691021
H         1.31234419797342   -0.02978133464685   14.01286575206303
H         1.44988121460551    1.63886804625990   14.57819656882075

