63
CSD_code = IPEHOA | q = 0 | S = 0 | Stoichiometry = C30H26N2S4Zn | MND = 4
Zn       -0.00015085572123    1.26387541056483    7.03429000259333
S         2.18603720770766    0.25713723058846    7.45353806066620
S         1.52304188095369    2.33550270809280    5.45594527520701
N         3.95460769299878    1.38035024810567    5.84517642768296
C         2.68285108651799    1.32960169153992    6.21326087312458
C         4.98975890626158    0.57545578571018    6.47073906244975
C         5.42373068917530   -0.53791835434611    5.55200081733979
C         4.54113697361101   -1.55554411491748    5.21342920947259
C         4.91226349568927   -2.56376748374884    4.34409204017188
C         6.19183344499960   -2.57025671600638    3.78922847149713
C         7.02813853145120   -1.55661060655170    4.15005156925821
C         6.70857689062661   -0.54153987857900    5.00050428965126
C         4.43407806493094    2.23231472351621    4.76983032165872
C         5.28868219409705    3.34970962420752    5.31071792810991
C         6.61498662714815    3.48450613624708    4.92482911266065
C         7.39276599647656    4.50706399224938    5.44099857861401
C         6.85215733460003    5.39699053236295    6.35277594571453
C         5.52929107429913    5.26671508741469    6.74280249657197
C         4.75053317269556    4.24897053862223    6.22354819311861
H         4.59506593130421    0.16269753383819    7.40169620383190
H         5.83288043554979    1.23457292103124    6.69888548258593
H         3.55093529293543   -1.55556468306202    5.64540608487997
H         4.21709150342643   -3.35096996477362    4.09135425070353
H         6.49226005036552   -3.35149752421936    3.10836134079831
H         7.41166359674942    0.23775221292667    5.25677194597530
H         3.57054006863094    2.64097240933256    4.24072326818559
H         5.01140052005939    1.60947446911619    4.07908441476999
H         7.03828909753623    2.79140030622893    4.21125731903526
H         8.42290489469333    4.60619219516764    5.13223587629278
H         7.45982816099897    6.19244181033907    6.75753593947239
H         5.10285592067500    5.96101477241940    7.45120908825780
H         3.71704566364682    4.14929689442992    6.52061672058288
S        -2.18644772581369    0.25731602720479    6.61517335666294
C        -2.68306853764360    1.32968210859664    7.85560464056668
S        -1.52316411601997    2.33562548340860    8.61273160280907
N        -3.95476707916618    1.38041576228544    8.22389075315469
C        -4.99000241372061    0.57550201941315    7.59850369530807
C        -5.42378084225891   -0.53789096896811    8.51731350101487
C        -4.54090316781289   -1.55516979107441    8.85619366856353
C        -4.91187019338206   -2.56343675240295    9.72554711832377
C        -6.19157844215223   -2.57034410120740   10.28008854473790
C        -7.02815321825627   -1.55701880180098    9.91898731219240
C        -6.70874411774624   -0.54190263145218    9.06852906647127
H        -7.41206142908853    0.23709524074781    8.81199893364408
H        -6.49187096533548   -3.35160336500325   10.96099419405392
H        -4.21646785960026   -3.35035426366080    9.97853987929013
H        -3.55060264550801   -1.55488821939296    8.42444333288333
H        -4.59546392374046    0.16275250650610    6.66747467449374
H        -5.83318536288013    1.23458943273609    7.37049801445191
C        -4.43408107677521    2.23237287158521    9.29931725817709
C        -5.28866586517465    3.34983288987304    8.75853119560739
C        -6.61510747697897    3.48433075896553    9.14405690040779
C        -7.39286992835640    4.50693839577225    8.62796160461264
C        -6.85211344370057    5.39719649398521    7.71659390445342
C        -5.52912427858967    5.26719180628010    7.32689563648790
C        -4.75037541634284    4.24941419642243    7.84610038980448
H        -3.71675989997601    4.15002589478920    7.54938402167248
H        -5.10254277316067    5.96182181406280    6.61890247797985
H        -7.45977713285932    6.19267450590345    7.31187549038237
H        -8.42314104998497    4.60577910753359    8.93637532410164
H        -7.03854213855554    2.79092664704277    9.85726033760837
H        -3.57046565637721    2.64095092937321    9.82835569506421
H        -5.01138336801036    1.60953409480743    9.99008086418439

