63
CSD_code = IPELIY | q = 0 | S = 0 | Stoichiometry = C24H28N4O6Zr | MND = 8
Zr       -0.38908823354826    4.26532437345040    4.44855565997649
O        -1.02872381206392    2.40288926211492    3.80821423371574
O        -1.01132627178482    4.83165711941625    2.55829462242091
O         1.31759780851836    3.70556742570952    3.36405922060163
O         0.62708388597122    6.07921926373013    4.45072528291525
O        -2.01095381834960    5.25610747684151    5.06657112683951
O         0.55000992515091    3.26685731244454    5.91100779975762
N        -2.24636637852405    4.04655897695503    5.61909020450588
N        -4.06071599213888    2.48139828128737    8.20708713091097
N         0.28178238831276    4.42072761267064    6.57175627707775
N        -0.21067388043775    5.75992871440591    9.78644095526183
C        -1.07359967332179    0.44206603700433    2.46622325431884
H        -0.63016581801425   -0.02947625216898    3.34011674454197
H        -0.56073549001932    0.11841261364520    1.56580108909340
H        -2.11634426146629    0.13307911291648    2.40315309917836
C        -1.01465177782465    1.94784056434386    2.62690093761304
C        -1.00044854308686    2.73582659294732    1.47396353129498
H        -1.00151122997266    2.24723288967014    0.51170945202203
C        -1.00878249445141    4.13866138460925    1.50680422568345
C        -1.04415236178751    4.86574501035586    0.17697519166787
H        -1.07840221572000    5.93798636547560    0.35261194634863
H        -1.91727878284736    4.56218692511507   -0.39626042108880
H        -0.15526339970138    4.62166278054656   -0.40059114353876
C         3.56618618379467    2.95338977642492    3.59255699111115
H         3.27330287675790    2.27609481655009    2.79395163503187
H         3.70947456349678    2.37512809621706    4.50393964700734
H         4.50248752625213    3.44499393674844    3.34356072857768
C         2.46182674076056    3.96026032468054    3.83454891185739
C         2.78099612365945    5.12741786679946    4.54239125930612
H         3.79367792836497    5.25980008638422    4.89072948058366
C         1.84128579449341    6.13082562085530    4.80341650285957
C         2.29976905213867    7.36560395710111    5.55159211740222
H         1.63684388210266    8.19602751582919    5.32114473709978
H         3.32538202623847    7.62481336682689    5.30638713811032
H         2.23542495477527    7.16200149589838    6.62021031128060
C        -3.02286751588120    3.94895783940376    6.64155581485220
C        -3.76534574037826    5.09812159473015    7.25198679140522
H        -3.71359060398656    5.95101909288454    6.57799656573042
H        -3.31162624136377    5.36382800408586    8.20612415861831
H        -4.79717565383310    4.81260862337574    7.43788165958102
C        -3.15555199718893    2.62014116028993    7.23856251430392
C        -2.33541079870023    1.55962832844283    6.82443162290511
H        -1.60018498670980    1.72972079131880    6.04686341492415
C        -2.48543672545551    0.33342376707884    7.44176616223089
H        -1.86939131258459   -0.50610983222570    7.15189274638214
C        -3.43475103427022    0.19279897064247    8.44730158129155
H        -3.57933973777732   -0.74913940807791    8.95343236336006
C        -4.19074915941523    1.30313389926235    8.78731392815212
H        -4.94096481318249    1.25180472518501    9.56661139253401
C         0.10871203544163    4.40711932435787    7.84671373802031
C         0.23692474993312    3.19576342819532    8.71665044935861
H         0.64995601038268    2.37909131515036    8.12767338273434
H        -0.74391171241857    2.91051974353001    9.09467889401417
H         0.87352958304837    3.42004012483796    9.56863868682010
C        -0.24668885206963    5.69016360978136    8.45626572582758
C        -0.63270399194146    6.77839452706213    7.65892537829775
H        -0.67968211669007    6.66250192371541    6.58163590520200
C        -0.97506032305364    7.96138547738340    8.28501977643649
H        -1.28237038004676    8.81931951438547    7.70429968390676
C        -0.92934536746173    8.03109477035512    9.67227068331835
H        -1.19211007548333    8.93681287847961   10.19646932646150
C        -0.54357610421417    6.89667593024910   10.36877253932500
H        -0.49763436037290    6.89266317230668   11.45062523263467

