29
CSD_code = IPEMEV | q = 1 | S = 0 | Stoichiometry = C9H14CrN3O2(1+) | MND = 8
Cr        2.78436850562599    3.04022222142820    8.29219045117140
O         4.95743264988231    2.95371306921911    6.51362884132001
O         4.69849950592158    3.22684037740135   10.34034704456495
N         4.04595474921445    2.94139283340497    7.21525413271952
N         3.87642159014354    3.11121340605367    9.54050034131786
N         2.54059656513802    0.92162984627042    8.33659810105912
C         0.50943105096412    3.11770468768266    8.27671040785446
H        -0.21206943745338    2.32858295407676    8.43542889872210
C         1.01127434619415    3.52975929488034    7.01799783766321
H         0.68983330785556    3.14860213347739    6.05928697155807
C         1.74800787587653    4.71859174681295    7.21690810139337
H         2.14301392884952    5.35614724628149    6.44002233271979
C         1.75466006918134    5.00362111378016    8.60106290461375
H         2.12523800864730    5.91058963312352    9.05639606267640
C         0.98094160187064    4.00833087567534    9.25513702132129
H         0.66360874207500    4.04388653523321   10.28695080751736
C         3.48615930083707   -0.05102531732024    8.88353751945952
H         3.75357005825292   -0.88971835954053    8.25305263136991
H         4.31642638473863    0.36491322304067    9.43968503160605
C         2.11956163283806    0.04662122704001    9.43951728544471
C         1.10894124317665   -1.02061662440455    9.09494595960585
H         1.30156278459100   -1.45604729868229    8.11695757198407
H         0.09953716331528   -0.61424681147966    9.10625557382881
H         1.15418647172042   -1.81857911161331    9.83206189290221
C         1.90351908133688    0.70044302749422   10.78021626199497
H         2.62980033751879    1.48792850582085   10.96500843566651
H         2.00989792065139   -0.04645804448573   11.56353152770019
H         0.89941269448231    1.11355873107794   10.84746592255367
H         2.15441186655413    0.59759887825095    7.44844412769112

