29
CSD_code = IPEMIZ | q = 1 | S = 0 | Stoichiometry = C9H14CrN3O2(1+) | MND = 8
Cr        4.63315898436886    8.12796953223709    2.57674557243094
O         4.02195081919584    7.06073291291746    5.10333657914691
O         2.64743812592955   10.06607149207550    3.01624232445222
N         4.27256750529738    7.45538239087614    4.05052846830912
N         3.44112254759744    9.26677694979181    2.78611110504903
N         3.35324392105558    6.79793854597750    1.53016903069311
H         3.31899356989018    6.96621482294540    0.52319829822139
C         6.53610401005707    7.24537567835404    1.80052571392915
H         6.84695817987606    6.21907311119912    1.66954181040459
C         6.86368570223019    8.06252827257481    2.90083587446526
H         7.40869880321123    7.75449609720518    3.78154134326924
C         6.47846448706890    9.38925884472036    2.59230357590536
H         6.71309160728681   10.26495965617236    3.17903981555926
C         5.97330889901375    9.39841493330910    1.26582065138451
H         5.74392471490441   10.28239540669531    0.68919649530056
C         6.00829008019809    8.08160892808841    0.78154643668434
H         5.82107876073378    7.78436615443275   -0.24124588145045
C         2.07062309619365    6.29675135616181    2.01551873055083
H         1.78792652931818    6.59966411494751    3.01559118844324
H         1.25082729229203    6.27749259941141    1.30816260999421
C         3.20526952471693    5.37276369964789    1.82205433831421
H         3.74104876713625    5.04517714769842    2.70774404394533
C         3.24347876943233    4.39462660441088    0.67396119225784
H         2.67486951340130    4.78851934180255   -0.17151737370790
H         2.76014552623213    3.47058006362438    0.99487431085785
C         4.67673808297339    4.09357742421937    0.24338865697542
H         5.24568727093484    3.67880634603323    1.07152012016501
H         5.17719715588758    4.99231934393528   -0.11173729616166
H         4.67670775356639    3.36665822853545   -0.56299773538836

