80
CSD_code = IPEPIE | q = 1 | S = 0 | Stoichiometry = C31H44NiP3S(1+) | MND = 4
Ni       14.13847917739778    2.91119175128974    4.04726677623191
P        15.86840432193364    4.21432979232177    4.44243847755441
P        13.21723871431813    4.54137125027334    2.98529454953475
P        12.81678005553627    1.51588490120781    2.95962778402261
C        12.10495056231924    5.84083867238921    3.64291641161974
H        11.95887771404747    6.61173465371730    2.88697275473665
H        12.56545021774739    6.29206540973964    4.52146315891587
H        11.14410624907284    5.41148904926430    3.91937582216798
C        13.88355506236407    1.22609434869869    6.32857481712898
C        13.13202589611999    2.38333674782127    6.53952158984880
H        13.36844141912720    3.30223932317901    5.96942676727630
C        12.64047876709630    0.11992248876596    8.05532603350819
H        12.45289174679322   -0.75960695102873    8.65194796213188
C        13.63215070475534    0.09120881274934    7.09454318196269
H        14.22232242619063   -0.79755414131693    6.93338256577277
C        12.13285529733211    2.39726288549328    7.49526839077493
H        11.55375913459813    3.29497997196002    7.65673124892303
C        11.88528503961849    1.26621062963234    8.25546518585394
H        11.11171955679511    1.28050213325852    9.00693885814444
C        14.59283836111140    5.60366500943471    2.41911893537490
C        16.61493909810883    7.45902724581525    2.02358734223244
H        17.38889352506828    8.19765325843812    1.88256289629171
C        15.53747590675682    7.41030122257658    1.15326803828591
H        15.48221263502009    8.09642623428528    0.32232675155804
C        14.51424683122825    6.50231920238545    1.36392476250241
H        13.66733745075268    6.49067736614417    0.69577685643667
C        15.72198719890166    5.59251054178671    3.24679970134955
C        16.71056635255941    6.55248649075981    3.06504778195475
H        17.55128224657991    6.60149351596153    3.73953421406872
C        12.24635708127308    2.45726998490993    1.48736819607504
C        12.31802324943201    3.85577341572857    1.56033602121728
C        11.07697576137185    4.04168769809950   -0.48842358858869
H        10.60184851415474    4.65231477546388   -1.24055985279192
C        11.63179348079958    1.87329315811743    0.38532844246880
H        11.58569261412140    0.80015199394946    0.28414556496168
C        11.06546936410776    2.66123775601266   -0.60235756448365
H        10.59200584674104    2.19458345016808   -1.45241408889117
C        11.70253227206374    4.63883639087291    0.59116036609321
H        11.69165223210574    5.71469011208272    0.68126331674409
C        17.37510705854916    3.30345605639117    3.83697781276735
H        17.41529930095539    2.40911584970669    4.47224916640849
C        17.03984885927987    2.87349389501072    2.40809067153007
H        17.12243002069847    3.71489721247315    1.72113937957469
H        16.00799894313969    2.49348672848597    2.36567935637195
H        17.71040241877584    2.08637718973793    2.07227660000290
C        18.71462279876057    4.02121259457905    3.91455176537895
H        19.50124567332476    3.31583441965354    3.65257036484788
H        18.92149682797500    4.38811152290921    4.91714179949289
H        18.76621954660244    4.84664098450889    3.20927930285272
C        16.30653848048683    5.04022097071971    6.03971592358997
H        17.22338655226577    5.61313975591265    5.85800116324535
C        15.18635498523171    6.00024929677842    6.43062593263651
H        14.25392765017371    5.45862732344498    6.58772595549215
H        15.03122809462300    6.75338614304108    5.65791157319933
H        15.43711742023596    6.50971842622475    7.35837851241617
C        16.55749306969468    3.99350289514817    7.11942101266574
H        16.84731150032140    4.47849594928286    8.04914620787156
H        17.35144935577678    3.30912994371273    6.82760153129140
H        15.65757111981038    3.41076648322925    7.30834890363347
C        11.19870718177881    1.17528104849938    3.82557211802948
H        11.48328824953387    0.63793614897781    4.74018378446141
C        10.55116053275161    2.49883627434931    4.22226235839665
H        10.18989354904588    3.02728259611828    3.34009528531841
H        11.26481326026507    3.13162599585215    4.75127400354459
H         9.70550741986752    2.31891218277483    4.88250579094606
C        10.21738856007996    0.33072686317955    3.02105606480320
H         9.32255720860174    0.16771037152465    3.61910696347977
H        10.62324707207227   -0.64324442289586    2.76341805969889
H         9.91944170401351    0.84458573335738    2.10914256560737
C        13.34011923722269   -0.13078019513939    2.27765609952877
H        12.55715954157692   -0.42976325392443    1.57173153223083
C        14.65552087960561    0.04388917872801    1.52525095606150
H        15.45548470794259    0.26691704267976    2.22923867824648
H        14.58743338694751    0.84926285701036    0.79285046343641
H        14.91335964534988   -0.87380303209156    1.00139559727925
C        13.46808425283250   -1.20348097132971    3.35407281062296
H        13.70595081668165   -2.15573910311472    2.88398641838488
H        12.54793196193625   -1.32599611883288    3.92068964434761
H        14.27071412195298   -0.95753995430008    4.04399603939700
S        15.14098494773003    1.22921656521179    5.11370540184702

