86
CSD_code = IPEPEA | q = 0 | S = 0 | Stoichiometry = C33H46NNiOP3S | MND = 4
Ni        2.78553566082158    8.21543741809553    4.21740649280998
P         4.24900540944187    7.77378456171890    5.86783008540851
P         4.43940556174238    7.95509475808470    2.80284009788412
P         1.72794901162506    6.51718581147760    3.24042523829290
S         5.54907125319463    9.27889953926610    1.60886357824135
C         1.79727415455169    9.68978711556286    4.40200418443463
C         3.37664563110850   10.96936317647835    1.70123723052619
H         3.79721715233927   11.32282924536990    2.63093970419813
C         4.05548330661123   10.01624984955859    0.95833087035553
C         2.17623525382581   11.47433780447725    1.25226845823509
H         1.67595126315098   12.21772362581420    1.85053996227872
C         3.54193054066280    9.60529362408621   -0.25971117989922
H         4.07583970466740    8.87582346196366   -0.85054657153700
C         2.34154538287688   10.10979733341112   -0.71432680621226
H         1.96004390794798    9.74873526979255   -1.65543072985967
C         1.61291853245219   11.03898581443951    0.04275988245183
C        -0.11877867445187   11.18545024172931   -1.67730103083588
H         0.65057043719794   11.32293774157118   -2.43853164033888
H        -0.94532029594172   11.85266525102318   -1.91526594398967
H        -0.48094402049490   10.15021019237506   -1.72723920173571
C         3.95033128014584    6.68637976641337    1.56733339812150
C         4.70204812071653    6.38703601611894    0.43663848540952
H         5.63097678697552    6.90819525610859    0.25200142252197
C         5.80108233922644    7.09771830467474    3.68296751924956
C         4.06386533338422    6.88797286828818    7.50299779186928
H         4.97195304714684    7.02847793863226    8.09620210852086
C         7.79117271780693    5.78757818337185    5.10221163443686
H         8.56272099281429    5.27230767857040    5.65638145904266
C         0.43607099117514    8.05916456801101    1.37017823267221
H        -0.48181987045759    8.45462486299482    0.93709649463559
H         1.07194476130112    7.69924035050294    0.56315151273306
H         0.96147185684041    8.87480820442813    1.87137579740818
C         1.40755413639346    4.80109619518699    3.91155388977165
H         0.81093312330442    4.22827075473403    3.19362792907682
C         6.90847450431617    6.58393713932961    3.02196798329780
H         7.00349617552683    6.70442795852517    1.95387420349882
C         3.04361258481813    4.80720282957645   -0.26618342992959
H         2.68998046978158    4.07494467367040   -0.97795458902390
C         2.71919663618759    6.05843587769437    1.76716033288746
C         4.25498822542434    5.44775477938916   -0.47269114803928
H         4.84710047038199    5.21958413502205   -1.34726938147127
C         5.06038713112921    9.36980567421299    6.44478660273641
H         4.28531845320936    9.85938486236110    7.04972700926304
C         5.69733710895815    6.97980961175047    5.07481926091823
C         6.70286787918130    6.31896253985993    5.77175044175666
H         6.64322132457958    6.21583396153403    6.84480085285464
C         0.12739694824219    6.95307304066034    2.37533000927947
H        -0.25272910031087    6.06826239730068    1.85121782809049
C         2.27990402826622    5.11588855047536    0.84374627396134
H         1.32959055587471    4.62134935656594    0.98591070543849
C         7.89921869110105    5.92707600831070    3.72871570102693
H         8.75582056675153    5.52470706556911    3.20796471259233
C         3.82341550918058    5.39443432028444    7.31823772895105
H         3.76672316356449    4.90364324502042    8.28972590440545
H         4.62392942839730    4.92871065925222    6.74616224144556
H         2.88506020964801    5.22836063653673    6.79880926377266
C         5.33906314461967   10.24904218026314    5.23103505319638
H         5.67002458305508   11.23949034828948    5.54087984639585
H         4.43059258898862   10.35809655571293    4.63613401688881
H         6.11541971019009    9.80846213185561    4.60416129444738
C         2.88233737976584    7.52641378791946    8.22966476318360
H         2.62897728443271    6.95877224186810    9.12392586573103
H         2.01088243266180    7.54684636569096    7.57379311490831
H         3.10565206986916    8.54891956275873    8.52680130170365
C         0.65177432488568    4.90527954130100    5.23431845474179
H         0.78849352391207    4.00462442910091    5.83190063716442
H        -0.41468784417704    5.03654992263359    5.07032803542188
H         1.01248692085165    5.76356774475501    5.80328173242742
C         2.77037100513256    4.13448532327818    4.09365808689607
H         2.69293836649873    3.25064749029361    4.72521823626320
H         3.46682684933060    4.83408838598054    4.55923069016524
H         3.18935471027009    3.83533772114497    3.13453968452812
C         6.33087863916202    9.22593962682441    7.27574835395565
H         6.70896834320114   10.21902056173533    7.51647513061747
H         7.10257380283066    8.70062804327166    6.71645959890452
H         6.15802792637530    8.70618844100053    8.21470343651925
C        -0.90722713919082    7.44000609328850    3.38381787672037
H        -1.75219075182834    7.89746402665823    2.87046224044777
H        -0.45846215525033    8.18574305511332    4.04043380534954
H        -1.28479267368848    6.62648056785912    3.99695773632910
O         1.10933036929936   10.60756061333070    4.50237687027927
N         0.40205023722901   11.52273316722715   -0.37779403601143
C        -0.49323032087033   12.15091216602380    0.56466493833582
H        -0.47300557801789   11.63114772470693    1.52525203339722
H        -1.51084142624227   12.11081435669154    0.18110439146746
H        -0.22968207795911   13.20128571594421    0.72964794623266

