65
CSD_code = IPEPOK | q = 0 | S = 0 | Stoichiometry = C24H36INiP3 | MND = 4
I         5.03553981536631    1.01493488891983    1.95769133352529
Ni        6.37518072237306    1.65350109100568    3.93188075590309
P         4.81644779300333    2.77562063356226    4.96651229281887
P         7.73092333899375    2.87776842253115    5.05473486107988
P         8.03147964208151    0.29464896177632    3.64303880764872
C         5.52563909161168    3.33203585700983    6.54987872668136
C         6.91545650472552    3.12836597060391    6.65046798002326
C         9.40874021451786    0.71521821925362    4.76536206479627
C        11.44760601169294    1.71073556615979    6.36030281271748
H        12.25261601067995    2.10454450253024    6.96391471963700
C         4.81934600070839    3.85658841986855    7.61883594915607
H         3.76725666613925    4.08113370055747    7.52488508281917
C        10.29843623958136    2.45756336793142    6.17521686490779
H        10.22343568230723    3.44798630317896    6.60195365830133
C         9.24908622024562    1.94196175297068    5.42056258624122
C        10.56766995494319   -0.02479206619217    4.95212923419629
H        10.68927892746849   -0.98736284477852    4.47694443789695
C         5.46256643963739    4.08524416204200    8.82542459446517
H         4.90681520499233    4.47316465988886    9.66637299818902
C        11.57370346118851    0.46337851573769    5.76923125230675
H        12.46713449640037   -0.12238799236502    5.92893610121357
C         7.54276438172815    3.34117686031421    7.87494478276745
H         8.59757366398888    3.14314696816081    7.98938795358169
C         6.81034954751887    3.79103536524171    8.95831125621208
H         7.30079189190782    3.93606768601578    9.91028030922838
C         3.51798701278325    1.51323031827759    5.40729306151442
H         3.03608972564349    1.28977458376112    4.44468699669074
C         8.76095688449128    0.62700797836143    1.96173171991272
H         8.03006073536484    0.22417328757654    1.24818316180665
C         3.92379933430696    4.28840045381972    4.37430682132078
H         3.47345961493583    4.76008719655993    5.25826299762903
C         7.94292572830889   -1.55899343906661    3.77910796666411
H         8.93144144831828   -1.93681848690591    3.49004139862359
C         2.84730360645448    3.99473286938910    3.33688819511360
H         2.40987554183665    4.93024920972484    2.99103787431615
H         2.05012963629298    3.37956091347932    3.74810761941621
H         3.26899405169571    3.48059797064951    2.47649499349432
C         5.00423161213099    5.20556638029995    3.80312756762282
H         4.57709672793302    6.14727838981020    3.46352488700650
H         5.48654594567472    4.72070222290887    2.95269268893549
H         5.76684223472701    5.42052771827148    4.55416380291725
C         4.27183283755046    0.26767819067190    5.87057577238998
H         3.59914851954045   -0.58129962642790    5.98175914718348
H         4.76869794647756    0.44855822941402    6.82512388625601
H         5.03740560964486    0.00228195429867    5.12614435663280
C         2.45484723460186    1.92734668831596    6.41443635210950
H         1.67140839567400    1.17043162427373    6.43757907389988
H         1.99601700243874    2.87730258646486    6.14792532139570
H         2.87577100932829    2.00261991042303    7.41489745325291
C         7.66387329198370   -1.94392568692124    5.23003359464677
H         7.65984509841795   -3.02764103174982    5.33716804509761
H         6.68996592676242   -1.57183982702309    5.54507498897177
H         8.41911179957249   -1.53403434957291    5.90013836816462
C        10.12277812185190    0.00093981429577    1.69451946844630
H        10.43645836331029    0.25090044748461    0.68203747816282
H        10.09154606558700   -1.08362939613606    1.77377168360913
H        10.87237066852517    0.38627463569831    2.38391802531348
C         6.89373969185059   -2.14838406746238    2.84465824474423
H         6.91325084343778   -3.23569913867369    2.90281306360586
H         7.07098868988095   -1.85765093611725    1.81126649779764
H         5.89640397023620   -1.81353127442912    3.12174813615123
C         8.81044586121468    2.14542405059645    1.79544604293761
H         9.08874779286979    2.41349423914211    0.77798202956835
H         9.53562305720657    2.58629777391495    2.48171090423369
H         7.82644443734102    2.58472865063619    2.00341889614903

