69
CSD_code = IPETAA | q = 0 | S = 0 | Stoichiometry = C24H30CdCl4N4O6 | MND = 6
Cd        6.73803055320953    7.50901215462880   12.19935051804537
Cl        1.32171425908628    7.98361984979037    8.19535085155208
Cl       -0.43610769395652    5.85470337668551    6.82439408742795
N         4.82244190367094    8.76617536964645   11.69927348352470
N         2.96418690706549    6.98246574724958   10.47443011508539
O         5.48667736820099   10.59392849817818   14.59733073571481
O         6.68769913547524    8.93276204066399   13.76048113217244
O         7.76108583976194    8.50832028715371    9.97233803998408
C         4.42729385303921    8.91028851094364   10.29516848705492
H         5.25642952054768    9.34506312575241    9.73240950036895
H         3.55755841294878    9.57976137093858   10.22056816865426
C         5.82066497250632    9.87318296465834   13.68174124787671
C         4.05928261774319    7.55125348264003    9.70862278891523
H         3.76247153459233    7.66913343572055    8.66793894118821
H         4.93362650974766    6.88372874415735    9.75428724498585
C         0.53972870662838    5.41296765187105    8.17748028151721
C         3.67671361444392    8.19837123950347   12.41736943556612
H         2.80014421563506    8.85224022389906   12.29592388639249
H         3.91327112079280    8.12217963129414   13.48070075948060
C         3.34745536282814    6.81699505470610   11.85704528341160
H         4.23755992508195    6.16839097277862   11.97454313572187
H         2.51171535770265    6.39200106441147   12.41532126637418
C         5.17612859370944   10.06123727434740   12.27921461905269
H         4.30259360171987   10.71853846690628   12.38111358609411
H         5.92122464392619   10.54989978429726   11.64224608189961
C         2.16838653053908    6.01403171061123    9.87302752946599
C         1.35994324902437    6.35783845802559    8.77785791669497
C         2.07569495799307    4.70828758631535   10.36006878065653
H         2.68531637948581    4.41398737920279   11.19871428985578
C         1.24106477477440    3.77991478012414    9.76889219449698
H         1.19619529541314    2.77574247692366   10.16075673947212
C         0.47651274321790    4.11774784090020    8.66780724335313
H        -0.16901311647679    3.39807090437658    8.19238745929398
H         7.76398742879582    9.02279027547847    9.16051687408298
H         7.49621798152850    7.60309855909201    9.72814426971440
Cl       12.14990309924982    7.02585925853256   16.20603137081324
Cl       13.91324228862042    9.15076757194902   17.57588900984193
N         8.65048516535079    6.24898568587376   12.70051453550347
N        10.51214173563089    8.02973061683466   13.92448638511415
O         7.98086773620488    4.41674646619766    9.80535364157129
O         6.78669777974291    6.08480334882707   10.63842626866085
O         5.71624083586586    6.50815934703778   14.42762583148218
C         9.04432205182369    6.10563659877006   14.10508752753619
H         8.21362699755354    5.67371062411260   14.66769363738839
H         9.91235834290333    5.43414389736455   14.18110071383013
C         7.65008342276673    5.14116742055201   10.71920227591906
C         9.41516442947742    7.46449440480546   14.69019996262896
H         9.71085887457412    7.34721299873895   15.73126134213507
H         8.54240893414594    8.13399809808904   14.64305163847249
C        12.93995907249904    9.59401487356451   16.22145454492291
C         9.79787638937827    6.81344178685966   11.98243115774238
H        10.67286935357295    6.15768440135730   12.10505280914551
H         9.56209584449005    6.88911941786461   10.91888589607863
C        10.13010746958423    8.19464124197371   12.54147849656830
H         9.24161027046079    8.84526068947609   12.42278694973241
H        10.96714234878311    8.61700991233995   11.98316067160756
C         8.29431553400647    4.95398579276504   12.12197960240266
H         9.16655247228926    4.29483216555882   12.02095265914194
H         7.54830337461959    4.46753141714315   12.75954983415026
C        11.31067148808142    8.99617335486525   14.52533596710736
C        12.11718163114896    8.65107149551877   15.62154774206347
C        11.40807291032057   10.30103000147796   14.03678868798733
H        10.80012976236449   10.59629094296458   13.19726156891223
C        12.24527287526226   11.22738348895469   14.62748690904377
H        12.29377609215920   12.23091092625967   14.23440183332070
C        13.00780739840583   10.88842915778372   15.72962789993263
H        13.65529454060709   11.60656579926557   16.20470584059334
H         5.69864104271116    5.99638618504277   15.24094600969204
H         5.98132137494530    7.41299031739352   14.67272380381206

