25
CSD_code = IPIHAQ | q = 0 | S = 0 | Stoichiometry = C10H9Cl2N3Pt | MND = 4
Pt        0.60761953988657    2.71763494250069    2.92516834951231
Cl        0.30185133212698    3.22704527439720    5.08404731753324
Cl        1.83724588614054    0.94858677875203    3.53702261583845
N        -1.40751653783775    2.96365152715528    0.56359316309729
H        -2.19096284316781    2.86513268981889   -0.06797153032008
N        -0.60737576843407    4.24792537261529    2.38046420888743
N         0.78453601980919    2.17995342783040    0.97692240490727
C        -0.29675172476910    2.23021415300070    0.19021893454992
C        -0.34345241621074    1.55248869366394   -1.03231846938379
H        -1.24355340750779    1.58496112876443   -1.62715215745896
C         0.76623096875256    0.85355920791195   -1.46143167895360
H         0.74525043421144    0.32012408307944   -2.39875509909463
C         1.90797101559848    0.86840666643893   -0.67032715092219
H         2.80628645395139    0.35958319923058   -0.97622624890358
C         1.87054986608250    1.53401461714896    0.53734857332227
H         2.72255207531601    1.54065261240648    1.20184072366440
C        -1.51535496548391    4.04449845805009    1.41879988650704
C        -2.59747497352878    4.91225297679274    1.23973774791323
H        -3.33095421419492    4.70115802301532    0.47655741447468
C        -2.70885338242460    6.02970045746558    2.04156489794378
H        -3.54018182594785    6.70636653763081    1.92079739061715
C        -1.72158305694151    6.26885391202192    2.98910608776164
H        -1.75215074062694    7.14101384477487    3.61984645513896
C        -0.69917822448566    5.35329050175493    3.12851583279444
H         0.06965048968416    5.47933091377896    3.87723033057273

