39
CSD_code = IPIHEU | q = 0 | S = 0 | Stoichiometry = C16H15N3O4Pt | MND = 4
Pt        4.31688897448106    4.54663622462792    3.61628084749212
O         3.80688127469797    5.99371397505503    2.31804508692520
O         5.53675256563473    5.87518290123570    4.50344211721453
O         4.50567595999236    7.65829067199008    1.05365515884707
O         7.00562976590325    7.49441333535559    4.22252667044153
N         4.10650496520785    1.35552051106167    3.60495650245048
H         4.15632238711662    0.34975139359412    3.50965205390025
N         3.05702908316677    3.28157907269699    2.70900516178050
N         4.84021524089959    3.15632222255818    4.95926663039446
C         3.19952612255299    1.94856376757427    2.75072000368085
C         2.43799846821045    1.10419880985593    1.93361381097884
H         2.59569951164975    0.03736714148114    1.97695961106507
C         1.49166135735738    1.64555599781082    1.09058846161226
H         0.89837521868421    1.00854869663180    0.45395896716024
C         1.31653130300072    3.02506425992794    1.08969956001413
H         0.57790075887984    3.49314929220490    0.46137988848273
C         2.11495042016747    3.79810145354509    1.90403074050197
H         2.03392056074402    4.87770582311148    1.91168140313476
C         4.75509092085612    1.83873287692384    4.72297749255633
C         5.31915566753576    0.89981716029016    5.59526410792938
H         5.24918487266463   -0.15180613674953    5.36278597134631
C         5.94895732116352    1.32993262422357    6.74312024501560
H         6.38846677062208    0.61892944845868    7.42458078176117
C         5.99284813178083    2.69531446891366    7.00294460290437
H         6.45990026877228    3.07875711592150    7.89416520553593
C         5.43394238905056    3.56475283393515    6.09195595059131
H         5.47301137227900    4.63671295728760    6.23895703702909
C         4.73242407556063    6.75408442080189    1.82752889602718
C         6.26487284979005    6.65116171249158    3.76642858380138
C         6.16675829663972    6.40227572706464    2.25296660842918
C         7.28110938947678    7.02257526570142    1.40569973692874
H         6.89778357601276    7.65104857577561    0.60469088874840
H         7.99733972526675    7.58489465532048    2.00092989639651
C         6.61790726364406    4.98287811934599    1.82276451111491
H         6.98198503656584    4.35407798729750    2.64294489136921
H         5.87709477284542    4.43104971373112    1.23359668284860
C         7.73746864406362    5.61933043793349    0.97898844917938
H         8.74090394088541    5.35534458354903    1.30749958860429
H         7.65153077617444    5.42406990146071   -0.08825280419095

