51
CSD_code = IPILID | q = 0 | S = 0 | Stoichiometry = C18H21Cl2HgN9 | MND = 5
Hg        4.37070918559059   17.10883179634257    2.66195153286050
N         4.88123950672699   19.40246535710488    1.80178724608511
N         5.11475216803035   20.35509108517505    2.73713192834053
N         5.34916673318164   20.85682457749402    5.01022696526284
N         4.19093483886504   18.94641117113663    4.26952486687547
N         4.44527701172050   19.32354583216437    6.56518812359235
N         3.44334387518760   17.39095009382774    5.78329315924750
N         3.15095947487229   16.56104230524154    4.75420206008670
N         5.49226300095830   21.18835485863431    7.32140613910277
N         5.03002347415809   20.85467229972841    8.54858786823726
C         5.05823849784159   19.15889450229546   -0.62985686182720
H         4.50213441669234   18.23926153998049   -0.45808920875908
H         6.05174960776460   18.90495363645125   -0.99850002632216
H         4.55546986735708   19.75406435194985   -1.38931124506996
C         5.17092384510016   19.92480192216226    0.63179122532528
C         5.59048143583299   21.26663239872375    0.80096956429683
H         5.88114307189910   21.94850455384892    0.02808567923682
C         5.55082667456830   21.51446429392839    2.14526766697666
C         5.86847843608187   22.75673222250147    2.88146274329051
H         5.88430868628731   23.59330399336621    2.18759205550335
H         6.84635679901432   22.67334127078110    3.35151167026105
H         5.13242768863772   22.93743558102668    3.66045940749131
C         4.88501951086948   20.05850425807460    4.05831735435566
C         5.08557496311919   20.44423928877337    6.25243958103575
C         4.04503060246357   18.59258293140788    5.54495495182478
C         3.29613732495278   17.48526971929450    8.29394467249823
H         2.88496811326478   16.85981177402417    9.08161881633453
H         2.82181792287021   18.46391540854651    8.31326306015745
H         4.35589756254200   17.65302460134559    8.47435403923126
C         3.09414805077223   16.82621374322192    6.98730694983902
C         2.55604426825396   15.60552280772068    6.68512575997169
H         2.17092210863739   14.88131018209868    7.37361033086466
C         2.61879816433103   15.47753646007507    5.27515180769949
C         2.17464767471757   14.33711362182494    4.44200786468681
H         2.30430926897182   14.57602993188758    3.38798381837098
H         1.12657383019265   14.11499811461127    4.63607184635257
H         2.75932389011329   13.45017987315194    4.68240964016462
C         5.32368715394174   21.61229490006914   10.85476176459517
H         4.60802981147827   20.82256129854181   11.06123704363061
H         4.92325822793955   22.56461301518335   11.19901701516335
H         6.24533509741163   21.41721941541142   11.40089290680080
C         5.59781395889749   21.66835015274838    9.39869365904974
C         6.47325292033875   22.56176625120132    8.72018948986990
H         7.07791554383068   23.32727377072424    9.16175508396910
C         6.38803549885084   22.23714864210769    7.39782474500588
C         7.09378682324759   22.81338811727554    6.23320196797832
H         7.92847163008585   23.41704347133745    6.58065230224069
H         6.42031482598504   23.44529824381349    5.65714735907713
H         7.45874129769002   22.02218202653239    5.58315864098837
Cl        6.42770933033489   16.80248273249030    3.63371449776604
Cl        2.97932632752298   16.33134560264154    1.05411047037845

