72
CSD_code = IPIPUS | q = 0 | S = 0 | Stoichiometry = C27H31CdN5O8 | MND = 7
Cd        0.73240542571980    9.62916632479465   10.04023123170422
C        -0.76174851152799    4.83139919513691    9.46987934790202
H         0.20172018390306    5.31815589579620    9.45822130431766
O        -1.36393339395798   12.35200696686011   10.03533183967401
C        -2.60087474940001   12.14331703949584    9.51036443959874
N        -0.39330185972667    9.43910969799658   11.90013485808942
C        -1.78046655358061    5.32583215134282   10.27305394067116
N        -1.11154546277317    9.40054559187865    8.83294717925097
O         1.16095478408023    7.54499246372105    9.81903100224016
N        -2.58048595040250    7.55193335502794   10.97230695100400
C        -3.75578557907318   12.79399330228950    9.93797020132921
H        -3.71164525035633   13.54202794705148   10.71296623538300
O         3.71797352467578   11.66457834649609    9.79642722390349
O         0.27331836936566   11.96634773064909   12.34073271529056
N         2.73159724790048   10.99459211880018    9.93823307795447
O         1.58758464639380    8.85825756619277    8.18943070346611
N         1.60052525543308    7.72019096734224    8.66300472651409
O         1.62094774137249   11.44051778330841    9.59527621561252
C        -2.96394822813802    7.89088071575836    9.66195621805684
H        -3.64233635785777    8.74496473983827    9.68014637352978
H        -3.45850110424775    7.03286062007971    9.20003211731960
C        -1.45116344784745   10.49057879320361    7.97072000473092
H        -1.64089147082599   10.13972805388006    6.94480442878439
H        -0.61302214758302   11.19306776809783    7.97967252479073
C        -1.23038353767079   13.28157837102309   11.08748317805065
H        -1.93141085031433   13.04515231025251   11.89949545101896
H        -1.41820304810387   14.30095395016954   10.72417658271960
O         2.78427235108618    9.87686950601892   10.45835546554965
C        -2.69400925564250   11.20444344571817    8.46899942666494
C         0.18897549928097   13.18721159086378   11.63342102914752
H         0.89304896537533   13.19951548485471   10.79527846036209
H         0.37638212841671   14.03745617203774   12.30406763692032
C         1.56557546546924   10.15839280024161   13.12840003216622
C        -2.72064618834766    8.47031660153211   12.02129039848963
H        -3.72536298182971    8.89768358378638   12.01338599940276
H        -2.54317071222497    7.96453807809123   12.97082305774936
C         0.30576195157704    9.31254355752167   13.13598855542351
H         0.62236847755705    8.26881131341956   13.27258661456701
H        -0.32605317809737    9.60618515995905   13.99245236879078
C        -3.93162230951815   10.92166629006739    7.91711105641728
H        -3.99821037933855   10.20270910591288    7.11340649268483
C        -1.77572458169139    8.20623996418896    8.61399903143373
H        -1.10005658777318    7.35598729221512    8.73142543781124
H        -2.25985990015084    8.15708358203924    7.62553539581475
C        -1.56216569403363    6.53960267477518   11.14076400606294
H        -1.57198051519226    6.22754543445825   12.19053912004704
H        -0.57515612742649    6.98539436124831   10.93505372370474
C        -5.07984522602218   11.55813562308940    8.36123472868188
H        -6.03419391025063   11.32973929758581    7.91294240847748
C         1.50662434132733   11.49692526503478   12.70735874818639
O         1.97949988200545    6.77469868486918    8.02186631317737
C        -4.98344241011348   12.49792613872319    9.36835656931054
H        -5.86511422611948   13.01390871617014    9.71737414998154
C        -3.00776884664915    4.67127994844176   10.29463246711411
H        -3.79937921128386    5.04281622225106   10.93089726689403
C        -1.74203447587618    9.75173408963002   11.96732865504545
H        -2.00851333999240   10.31078490505879   12.87621161810859
H        -2.05175665246150   10.30084323647190   11.08512485806139
C         2.78234502345745    9.62877880060676   13.52447041365378
H         2.83319458187981    8.59444486301062   13.83100334381135
C        -2.20155587947772    3.07082076373321    8.70121408030485
H        -2.36685483552809    2.19724870351449    8.08866098669820
C        -0.97287865712668    3.70820277695939    8.68787712437935
H        -0.17349539357375    3.33669452658332    8.06568696203136
C         2.66215503275451   12.26855328615773   12.70612769011462
H         2.63539594353165   13.29474084464807   12.37552034593930
C         3.86806467100203   11.71749851326642   13.10656900795927
H         4.75945492264618   12.32415819607221   13.07493729443410
C        -3.21876702994510    3.55288326351196    9.50861267489207
H        -4.17687118160747    3.05448665584493    9.52962413835738
C         3.93147548525585   10.40153669133083   13.52075585635777
H         4.87271528921110    9.96943422200424   13.82159891590945

