69
CSD_code = IPIRAB | q = 0 | S = 0 | Stoichiometry = C27H37N3OPd | MND = 4
Pd       -0.96202883777023    7.19757530437128    8.48024194566422
O         0.83900825579870    7.87091139962992    7.46195414707081
N        -1.10072676215190    9.92801462158805    7.38863182425612
N        -3.00711357236595    8.94772009819561    7.12796031543787
N        -0.14404994848641    5.37272318116201    9.15191849900225
C         1.20451538224213    9.10849538977128    7.54023817315884
C         2.58251646745079    9.49665052283452    7.51287114284462
C         2.92168911049255   10.81763097595008    7.70141363762487
H         3.96519350696103   11.08265695308613    7.70579017775369
C         1.99455393286392   11.84268271570500    7.90173093187031
C         0.66155701244918   11.49705293113110    7.82927560626515
H        -0.11315773136262   12.23769717379186    7.94901887828533
C         0.27460016479948   10.18102228809162    7.61673176760121
C         3.65446186473974    8.43082837568768    7.30741110348310
C         3.33934879659844    7.62969530758336    6.03652049657682
H         3.38436899832419    8.28115589531774    5.16584948796896
H         2.34275572767192    7.20311481124698    6.09582492991261
H         4.06126738550040    6.82496341174675    5.90565348240669
C         3.64845448807199    7.50532313289581    8.53006637217555
H         4.33467779207802    6.67144697286428    8.39044449181855
H         2.64531208916341    7.12010521237889    8.67754550600838
H         3.94250619140762    8.05647022985232    9.42181891853223
C         5.06672004574498    9.00420703179721    7.15200746807194
H         5.11817967787137    9.70015184935864    6.31750922084478
H         5.76079610811057    8.18877235498757    6.95419215040634
H         5.39640854752483    9.50687192303111    8.05874251079258
C         2.48116148671889   13.25987226848203    8.15929705009526
C         1.32848802676910   14.24474928500568    8.37510680385282
H         0.70145781931737   14.31357321878633    7.48883550716153
H         1.72927981050730   15.23599539995885    8.57927341761322
H         0.71605630107606   13.94775194996190    9.22343555693459
C         3.35763491693347   13.27167189590954    9.41960115618642
H         2.78703599199659   12.91714132351741   10.27551227910375
H         3.70600010971254   14.28146576949859    9.62908369864282
H         4.22597115099465   12.62968602467079    9.30124568270781
C         3.30205213446806   13.74268611246460    6.95503063908106
H         4.17305253168885   13.11352173967687    6.79468400314589
H         3.64352007380616   14.76376430171930    7.11521242678572
H         2.69485849291028   13.71825244060672    6.05230792716328
C        -1.90451528144273   10.78123024600027    6.67522365672230
H        -1.56389828049364   11.72908334591035    6.31480437040522
C        -3.10055511487826   10.16722147201465    6.51643361377458
H        -3.98974656975493   10.49348407454869    6.01696214327873
C        -1.77994548300211    8.80266906862484    7.67875722606021
C        -4.04258833561591    7.94934231505716    7.09695721899129
H        -3.61464085984660    6.99838146855864    7.43347328905142
H        -4.42140456143897    7.84235512056604    6.07934546071542
H        -4.86839726207924    8.22261056610613    7.75717996889768
C        -2.45274520223804    6.66136757288373    9.70249970885231
C        -3.40837697872392    7.45985080986940   10.32788593403247
H        -3.49259061608360    8.50973546905209   10.06893685187849
C        -4.26408815147672    6.93930326736442   11.28856006618133
H        -4.99955807978561    7.57904786532003   11.75679101952592
C        -4.18010424439680    5.60777159404906   11.65334652380851
H        -4.84884800122754    5.20269694640847   12.39890977891386
C        -3.22030032690514    4.79833808825618   11.06894405160962
H        -3.13304226223789    3.76048033650081   11.36285071470903
C        -2.36698108466486    5.32081279805090   10.11095756164158
C        -1.28673089355317    4.49506862175504    9.45687194583095
H        -0.97240058728368    3.65168244021323   10.09259781603882
H        -1.66859952656677    4.08456404718231    8.51262319476168
C         0.59180530856986    5.66687915415689   10.38100213372269
H         1.09267886913187    4.76610074956222   10.76649686535370
H        -0.10051273544052    6.03710939576120   11.14160686170547
H         1.34434678216769    6.43606886496956   10.18965715654435
C         0.73593381870161    4.75485159218789    8.16572467643317
H         1.15536486096856    3.80993450970041    8.54156583031816
H         1.55144270122188    5.43631379115317    7.92291323115480
H         0.17481455775640    4.55557261390138    7.24903179477405

