43
CSD_code = IPISUV | q = 1 | S = 0 | Stoichiometry = C18H18Cl2CoN4(1+) | MND = 6
Co        7.05764834709472    7.65381853923006    3.07466148526674
N         6.92286657292537    8.56042719203591    1.28949861490819
N         7.87295582988958    6.16686275363098    2.08232020788915
N         5.34488164093139    6.92232622772766    2.66963464588046
N         8.71825408555677    8.58212505695063    3.21265835237388
Cl        6.06241340674332    9.32333802407883    4.07196023511616
Cl        7.23542727741576    6.67788630230483    4.98486641694913
C         7.57380790989362    7.73306130601053    0.26039323388957
H         8.50519992751992    8.21365660490276   -0.05997646432012
H         6.93565007767741    7.64260621473831   -0.62572651524569
C         7.93133082424533    6.36181057270550    0.76329627928392
C         8.34719777414323    5.36560569714276   -0.10930268948808
H         8.37633035838034    5.55938782479045   -1.17000018200960
C         8.72383377629716    4.13508986598666    0.40136989364396
H         9.04891670256367    3.34487389435993   -0.25679099375602
C         8.67545361323559    3.94686259292466    1.77447784335577
H         8.96651888329050    3.01057661742517    2.22096486047636
C         8.24027669220174    4.98502160111515    2.57675767535873
H         8.17710875585656    4.88506352135074    3.65207716533063
C         5.48243193978833    8.70358968443951    1.04864863959927
H         5.25103429427451    8.83707353762762   -0.01435489295516
H         5.12773550815333    9.58478300736596    1.59390490049405
C         4.75144469787296    7.52583647765103    1.62962986941624
C         3.50384597169592    7.13230410854787    1.17187903235466
H         3.05629513597957    7.64291699300139    0.33386355948259
C         2.84082443955814    6.09877695720178    1.81368577392532
H         1.86393191762086    5.78442001831939    1.48178716466185
C         3.45839753803091    5.48852261859988    2.89328653834254
H         2.97976451654821    4.68851922369585    3.43343968046508
C         4.71131748121394    5.92590284436671    3.28439980105103
H         5.21935644613988    5.47970693785227    4.12802620126449
C         7.63095124061370    9.83562682319796    1.46429696102860
H         6.97427381803954   10.52773530545312    2.00183302401350
H         7.91079366704164   10.28922961991137    0.50694947495011
C         8.82480050552934    9.60315944997073    2.34801864863845
C         9.94112670840382   10.42312378512341    2.31962223984899
H         9.98790028648517   11.23758956519134    1.61408760711876
C        10.97408302880243   10.19384958497228    3.21464001173427
H        11.84642133964324   10.82801269361912    3.21921935899091
C        10.85545190259168    9.13691057943062    4.10203367538926
H        11.62814844249722    8.91989281397716    4.82085114192381
C         9.71486878202570    8.35415972155307    4.06511518250294
H         9.58392793558785    7.52975723951899    4.75209634085478

