68
CSD_code = IPITIL | q = 0 | S = 0 | Stoichiometry = C25H36ClIrO3P2 | MND = 6
Ir        1.70165077774121   10.98908849978511    4.04047249543748
Cl        2.84076533991559   12.71572441330630    5.23461066677873
P         0.51855544845936    9.63740542440119    2.56389671929180
P         0.49865645408906   10.45570962749845    6.05004874031587
O         4.31328869897749    9.64030938499820    4.78962333843173
C         3.29317487543180   10.00641837045447    4.42293552710894
O         0.68912804685896   10.37690626696581    1.15065780304972
O        -0.91327294530828   11.17044514470613    5.74357809053040
C         1.76784374549441   11.26031439171481    1.05545179405385
C         2.11056860635633   11.70807936919027   -0.20743180003913
H         1.54112129568329   11.36980931401002   -1.05999790804389
C         3.17679912344581   12.58017886932187   -0.35039542279200
H         3.44875729275165   12.93885469542827   -1.33146510275050
C         3.88549154676009   12.97826039133415    0.76685705355379
H         4.72238948786129   13.65288811080476    0.66573142979840
C         3.52579160852587   12.52127032483872    2.02714934393054
H         4.08983832790709   12.86110495393419    2.88269144458023
C         2.45112978874675   11.65999486683089    2.20751239895681
C         1.25458850564653    7.96144262920915    2.15120568826436
H         0.60415571242147    7.50425025201306    1.39840392063969
C         2.63420648903558    8.16820929299850    1.53401852603340
H         2.56741825161645    8.70226477864704    0.58888122104396
H         3.10549543891367    7.20453273632559    1.34750796580288
H         3.27717976116265    8.73957704785471    2.20342824267443
C         1.35035672512042    7.06816362175809    3.37847264991058
H         0.37360434645532    6.87934938881998    3.81810355329441
H         1.98091724736232    7.53972570451998    4.12954126096937
H         1.79344818131978    6.10969871522036    3.11304340566188
C        -1.34222378175432    9.41115113747180    2.60036264553981
H        -1.61608338879411    9.45965547738514    3.66069551117072
C        -2.01060886159979   10.57472571528796    1.87149386800944
H        -1.64681662278158   11.53185165790303    2.23490527646099
H        -3.08706182134155   10.53518212662174    2.02767228478077
H        -1.81269050234098   10.51468339112870    0.80389273514396
C        -1.84058790608524    8.08880789168336    2.02412068122189
H        -1.44969734180743    7.22842033684895    2.56166513965709
H        -1.57564733989235    8.00340180594579    0.97228100291075
H        -2.92706259732122    8.06130113056848    2.09675902176220
C        -0.91672460796244   12.20712688993624    4.80278829733295
C        -1.99553377672862   13.07245559495545    4.85221958251281
H        -2.75851857151849   12.92033267038999    5.60133875851890
C        -2.06837065610905   14.11806864144024    3.94954360422160
H        -2.90400920115183   14.80092294019896    3.98068360942885
C        -1.05479820560711   14.28247342730973    3.02449047933383
H        -1.08797068583387   15.10371592937357    2.32368652192932
C         0.01285394440862   13.39808122600017    2.98843121223555
H         0.78646846086059   13.56146810705199    2.25217454076238
C         0.11639730798190   12.31939556477271    3.86637369903460
C         0.90140718034016   11.08555157170315    7.76367737710691
H         0.26837207418516   10.52058183061277    8.46071340147816
C         0.55736388628586   12.56768355292107    7.87286481619998
H        -0.50377843153525   12.73967582561568    7.70274693189622
H         1.12746418151086   13.14128811869391    7.14487098356742
H         0.80840545936351   12.93142344157995    8.86797934019574
C         2.37091872837398   10.84762437765756    8.09322362174849
H         2.65030146463643    9.80373053782082    7.96930712055907
H         2.57131353452428   11.13615420202838    9.12382109319740
H         2.99478162884326   11.45320045560095    7.44018082725484
C        -0.16114968794676    8.73611613746932    6.35938870458488
H        -0.38261799492088    8.35952686671426    5.35144183927586
C         0.89834445044707    7.84186486114622    6.99019183283822
H         1.85400262299926    7.95023973550022    6.47935641279493
H         0.59617357463860    6.79705638260904    6.93186564239825
H         1.03732940660163    8.09234771941464    8.03940885935060
C        -1.45557518323779    8.72301065675241    7.16447148099978
H        -2.19191314415163    9.38971192593785    6.72285257945878
H        -1.28556226599881    9.03159593662429    8.19324464990578
H        -1.86734350845389    7.71471761446790    7.18078096684413

