35
CSD_code = IPIZEO | q = 0 | S = 0 | Stoichiometry = C8H15B9O2Ru | MND = 9
C         0.58440825577356    8.54342603229566    6.55137659621932
C         2.12313165425653    8.13055017192810    6.69395977225707
Ru        1.45923407160366    8.03393973157926    4.60835299469745
C         3.06889263516283    9.31175696658114    6.49755269480585
H         3.01062277838050   10.05492483805889    7.30658277167565
H         4.10638106810846    8.96972152872260    6.44149094327132
C         2.62427399224752    9.90965323239402    5.17868071404540
H         3.37266450143728   10.27753491560513    4.48242510414438
B        -0.35044905450362    7.36688651114065    5.82700598962907
H        -1.33496554368567    7.67046570068213    5.24439099639927
C         1.30127629720111   10.26464892470254    5.05617139157059
H         0.96640951286569   10.92303367796815    4.25957345601559
B        -0.41915500983885    7.61408069524225    7.58969534632521
H        -1.37954038996830    8.12049218359814    8.03887005167207
C         0.39998772959717   10.02789124789951    6.25037861567098
H        -0.64305938648544   10.24412124522281    6.00176959996954
H         0.68005373366097   10.68025052833540    7.09075425345288
B         1.15809053117410    8.12956565131026    8.13318455351039
H         1.33231894256279    9.03272887667316    8.86768568074212
B         2.45848066207426    6.61316201817263    6.08752558177574
H         3.54695323170786    6.36037899634316    5.69704140727590
B         0.84371296716737    6.03175359420596    5.45004811950669
H         0.69871289391839    5.20491070531251    4.62100633965869
B        -0.24198589009552    5.98279398644042    6.89407182650321
H        -1.10083626598970    5.18230760477235    6.94035340690864
B         0.68519466344495    6.44386439847740    8.35429324614549
H         0.46549886895849    5.99173322954644    9.41570146941098
B         2.33724053472131    6.87448442310877    7.84523372250289
H         3.32875706112551    6.85708327534270    8.47546823234680
B         1.49553256223450    5.51650331072478    7.05502861334716
H         1.82079146694621    4.39830478714879    7.21110050265703
O         3.56348924884887    7.23305817357738    2.62842396728752
C         2.76147094566365    7.53931523451002    3.39254084833156
O        -0.38829868912563    8.29415125612552    2.26155611977428
C         0.31490941884954    8.19652234625099    3.16530507049312

