93
CSD_code = IPIZAI | q = 0 | S = 0 | Stoichiometry = C43H42Cl2N2OP2Pt | MND = 4
C         4.96249098052903    4.89269473396565    9.02399299958323
C         5.88893423506810    4.04313218390098    9.61137452761630
H         6.48919106278708    3.38168921954819    9.00418685305928
C         6.02783161602887    4.02561198581883   10.98893678427564
H         6.74132459484802    3.35502083951581   11.44586446756493
C         5.25150485953298    4.85426602738693   11.78141841948261
H         5.36019898014064    4.82967645754698   12.85556309891240
C         4.32482865667223    5.70442797035154   11.19765742987011
H         3.70932409866070    6.34330233874754   11.81385625177112
C         4.18018944925138    5.72092748630668    9.82465031722058
H         3.44071665138787    6.36601068073800    9.35503729207477
C         5.84161155977234    6.39708850800115    6.85471643361525
H         5.50191069739915    7.30300797594995    7.35421841275039
H         5.88893963515264    6.57887037942891    5.78333809608369
H         6.83268122289621    6.13712757687261    7.22562693129982
C         5.51123303622908    3.61074269900181    6.44716078106471
H         6.57426315323858    3.62483480616879    6.68578385687582
H         5.38724541223667    3.68898877383862    5.36713813240081
H         5.05027549819505    2.68728965185220    6.79168471489469
C         1.88690703171913    8.49865229567760    8.52917096230897
H         1.02792175136999    7.83970548713279    8.57651353989196
C         2.23505560338146    9.28687380932313    9.60829401150147
H         1.64692745665517    9.25368141542488   10.51326705730012
C         3.34686617568460   10.11305763040613    9.53046640413924
H         3.62511297004354   10.72506168775719   10.37533554166095
C         4.10393237886692   10.14960518499712    8.37191888283044
H         4.97253799949813   10.78941735795652    8.31405426147867
C         3.75752945734957    9.36504494414204    7.28388531058024
H         4.35443636874513    9.39570409166099    6.38295094957933
C         2.63939384799841    8.54299398239224    7.35361452829369
C         3.20382204660964    7.68958040832045    4.63969862228892
C         3.92171195488173    6.66120627612036    4.04143546816012
H         3.87004899952626    5.66748102846042    4.47636415646302
C         4.67186463924217    6.90408869572299    2.90442484401793
H         5.22510473171575    6.10192463167087    2.43852847312333
C         4.70414685747785    8.17758432068971    2.35891320819327
H         5.28667830655221    8.36904506305133    1.47054870862953
C         3.97901744499682    9.20390911974845    2.94410689444675
H         3.99601998196004   10.19172376207710    2.50859905500155
C         3.22207153085003    8.96229264023505    4.07654213113947
H         2.63540860236789    9.75343537335827    4.52337142060383
C         0.53993080593669    7.89966441572107    5.49708665078283
C         0.05648307511639    9.14505182963524    5.88976692576949
H         0.65313356936558    9.77614113744012    6.53383424503582
C        -1.18865338032967    9.57736902513035    5.47465075189531
H        -1.54917067197002   10.54794523441605    5.78142992972599
C        -1.97673407460840    8.75326883152587    4.69052294677187
H        -2.96274495645065    9.07109480072600    4.38780976341370
C        -1.50016703047425    7.51836091254875    4.29255893981944
H        -2.12446875241551    6.87208144200951    3.69577479414076
C        -0.22926488375773    7.09203863052275    4.65412571098732
C         0.29210821639346    5.76969675947379    4.13972751812391
H         1.19373903115172    5.51051407828446    4.74475278762454
C         0.73081552770165    5.86963316423475    2.67055686733219
H         1.61283980301344    6.50038421566582    2.58575506152013
H         0.99848480575545    4.85860897200851    2.34378887610449
C        -0.39417854897259    6.35004181009471    1.79827523212298
C        -0.39922663263716    7.70026895174657    1.24748722004537
C        -1.33165428892526    8.06298091153334    0.24632263026818
C        -1.31467980052860    9.35674861671174   -0.27678946181993
H        -2.02973177918576    9.59508839439478   -1.04874104574066
C        -0.42457334449899   10.29871674038059    0.18983683591368
H        -0.43137474817102   11.29703025085885   -0.22182634905290
C         0.46992132755342    9.96348285900266    1.19645163450097
H         1.15753692783805   10.70131446637533    1.58199377013386
C         0.48026041385041    8.68445100966369    1.70834463858241
H         1.17249945045196    8.45584257977459    2.50332232672630
C        -1.60109330036007    4.33030992231814    2.05937006924803
C        -1.27878043125961    3.93634743217405    3.37993110998143
C        -1.72832278931566    2.67685664375906    3.80097466737936
H        -1.49702018450495    2.38026779612453    4.81520125783155
C        -2.42765482100900    1.81060973857493    2.98936096701093
C        -2.85236541777042    0.47034328393136    3.50473887493320
H        -2.43271785440095   -0.32683566635000    2.89159468840037
H        -3.93741886939722    0.37509304599508    3.47293776088951
H        -2.52240569476140    0.32956067644273    4.53065546835666
C        -2.73740836739437    2.20261975407500    1.67651517782825
C        -3.49722048876565    1.29200759619017    0.76062227031371
H        -4.46720359940704    1.03777206635668    1.18728279456782
H        -2.95155395868256    0.36178645343013    0.60189790886402
H        -3.65779781867868    1.76706255295565   -0.20374554132652
C        -2.33804919276863    3.45038550267253    1.25539584731779
H        -2.57931873445827    3.78592201090804    0.25674733526669
N        -0.66663253859686    4.71951841404800    4.31853061487593
H        -0.66814976855255    4.35378297739784    5.26364212958519
N        -1.36989590572195    5.56508906229040    1.50470784362464
O        -2.24023316223258    7.20972916571355   -0.23605461384247
H        -2.15275361404057    6.36653479769934    0.29344216058567
P         4.67144658233331    5.02338123883008    7.23845214631323
P         2.16460495089940    7.32750336785432    6.08961041066201
Cl        0.11637210218478    5.26917202392138    7.39496933392299
Cl        2.61614366720843    3.17080209935065    7.96604179052385
Pt        2.40378761155799    5.27907850157902    7.04854809383845

