51
CSD_code = IPIZOY | q = 0 | S = 0 | Stoichiometry = C11H24B9O5PRu | MND = 8
C         2.75301353905614    6.21269276763250    3.07768593248686
P         1.39152434618127    3.04830204997996    2.32736152218871
C         4.00594665125150    6.54741668961692    2.24411267684883
C         5.35190183008474    5.97530288408259    2.68142920082271
H         5.94568617013694    5.70366347958689    1.80180087966943
H         5.92840718014616    6.74455116102011    3.21253336545830
Ru        2.77010762901459    4.70601381576062    1.33576525775660
B         1.29701737004174    6.18873930624280    2.12433635539157
H         0.34979358905455    5.60886821840603    2.57323741851367
C         5.23398825333598    4.78502967026256    3.58761043047033
H         6.10349386710629    4.14451551571931    3.64153870192225
B         1.69585673358214    7.57767418670914    3.17573039791608
H         1.07555658404455    7.70016890619651    4.17091370561902
C         4.16384271629310    4.52287770027541    4.32633868488814
H         4.14664896652106    3.66304015860396    4.98175145024870
B         3.41498991897151    7.83827674359243    3.21585822025039
H         4.02653257258197    8.06519566770327    4.19451324820546
C         2.94664409755898    5.40111154376952    4.35941366352318
H         3.04888961651733    6.07482155381455    5.22190517956689
H         2.06775266110790    4.78441593429784    4.56213571757139
B         3.57087465645749    6.66316458179330    0.58831457108689
H         4.40403046517871    6.47760133576602   -0.23537629143518
B         1.74159529177000    6.57981078303784    0.47679909937523
H         1.13681386931393    6.32853508823861   -0.51421576555923
B         1.11489751042581    7.88272373756316    1.53471811205162
H         0.05046677672037    8.33961495312923    1.32661277540104
B         2.45094949787793    8.85076075015393    2.15811703041806
H         2.34787235963128   10.00109383402584    2.37475516938943
C        -0.25104719448028    3.29646539278327    4.44915974410218
H        -0.41254837423376    2.72610389330717    5.36396780194609
H        -1.11228874218736    3.18891183456730    3.79062481586223
H        -0.11877135421666    4.35185338568613    4.69732854565278
O         0.91335724724569    2.75408164125383    3.84793040505754
B         3.97049188516684    8.10790238259959    1.58423034396336
H         5.00740547136283    8.62660511674690    1.38793299184500
C        -0.37288708629393    3.14128285692735    0.31557617863871
H        -1.45817464793051    3.09146045523405    0.22763957358417
H         0.08474243110759    2.44415268773185   -0.38897131571383
H        -0.03046954544610    4.15702567036257    0.09846927031132
O        -0.06435673912976    2.78226637453412    1.65082240633177
B         2.55169013698686    8.15691140887467    0.51457508154838
H         2.54925465193079    8.83931874216253   -0.44343200505407
C         1.65283525912953    0.40079465834578    2.32320610629139
H         1.78474099041935    0.14417693338679    3.37443602650415
H         2.19879568152432   -0.30445774807136    1.69830450949219
H         0.59087076912809    0.37546567261215    2.07445302823865
O         2.20562029442675    1.68861783367537    2.06041220396179
C         4.20778579679687    3.52857699876802    1.43688213291017
O         5.06576078478075    2.76655335288681    1.35929269689416
C         2.61773102745120    3.98666695907636   -0.34715751960518
O         2.54056653651478    3.50178047960618   -1.39037973286070

