43
CSD_code = IPOGEA | q = 0 | S = 0 | Stoichiometry = C16H16N2NiO4S4 | MND = 4
Ni        3.20262432318180    1.01004782897042    1.43716411955096
S         1.79214210392907   -0.19292348989020    2.55717085274018
S         1.56091495668279    2.11346659559450    0.55399530166346
S         6.44096794961476   -2.62289854739906    4.38545708947352
S         5.70768814496702    4.85768482007909   -1.92291831922205
O         4.67271814574507    0.06387814903030    2.16924847142589
O         4.47714732966812    2.04925949229049    0.49690820341165
O         1.78352978717113   -2.04941956463977    4.25208028123271
O         1.17302393184972    3.99884133278575   -1.06345376670211
N         3.90208442480086   -1.55602005316025    3.64985651251928
N         3.38570421601707    3.62964171336656   -0.81516748729826
C         4.83980911389488   -0.87748263150118    2.97624636219972
C         2.62114361615092   -1.32458684295807    3.53342459655951
C         4.45727177931857    3.00410113807644   -0.31134016227700
C         2.15549029221615    3.31522030918545   -0.50577659825438
C         6.18800245064463   -1.33322181751235    3.26310391215016
C         7.37037740925097   -0.86767471543100    2.74631894476120
H         7.41045561891638   -0.06718473281207    2.03065990927198
C         8.48535897339817   -1.55151194027838    3.25625169068417
H         9.50119503714005   -1.33679312360429    2.97684640734798
C         8.13533149609031   -2.52185799560583    4.14830947993847
H         8.78505599298661   -3.18693473799286    4.68232498760646
C         2.33531056404468   -3.04221746891308    5.11895188977337
H         3.01356853359529   -2.55760644994366    5.82912401360820
H         2.92016188961937   -3.75039918593200    4.52263409126555
C         1.18261153453024   -3.72839607573705    5.82834853091589
H         1.56863034269140   -4.48968934378190    6.49977263389750
H         0.52130605888594   -4.19340056437020    5.10274764029875
H         0.61190649687286   -3.00270519724667    6.40084942655948
C         5.71314987776929    3.54420071337243   -0.79967315003170
C         6.98809341291084    3.14828856570341   -0.48415034421736
H         7.18860178338522    2.34516476937103    0.20092937153725
C         7.96540085702654    3.90507922350605   -1.14972439581965
H         9.02365295076448    3.75154585917465   -1.03743570055918
C         7.42119644032185    4.86012091580067   -1.95693180730285
H         7.93723352296048    5.56958717364233   -2.57336599690887
C         1.52123540516623    5.04457367031186   -1.97278670304193
H         2.08612591803444    4.61662685697276   -2.80769024369391
H         2.16937336536166    5.76220409504478   -1.45900665057812
C         0.23391817960313    5.69424954298932   -2.44542612563565
H         0.46402076880796    6.49665712116062   -3.14011853346381
H        -0.31203037966002    6.10012955693482   -1.59848974262339
H        -0.39440461632617    4.96035503533786   -2.94206899276290

