61
CSD_code = IPONUW | q = 0 | S = 0 | Stoichiometry = C31H24Cl2NOPPt | MND = 4
Pt        2.90752865228605    6.25293671675119    3.36889109850156
Cl        0.71725660524092    5.99266689446120    2.94592508185859
Cl        2.95706883344205    4.18400490466474    4.36081158623998
P         3.05182125519565    8.19128494807629    2.21487435222524
N         4.83962516836941    6.53439029436028    3.80865591879389
O         6.93357022699084    4.73406173638882    4.34196207030257
C         5.79683031681520    6.90265021710232    3.02834378542444
H         6.81770117093216    6.86024949048847    3.40387942556245
C         4.50955875407803    7.99678186703300    1.15001074031722
C         4.50487712836468    8.45249879271980   -0.16300340574395
H         3.61390192907397    8.92339643693142   -0.55398452852863
C         5.62011836152148    8.31124026530930   -0.96992569192218
H         5.59437311899600    8.66314072062361   -1.99005729699970
C         6.76974265243465    7.72599828109805   -0.46041534906980
H         7.64478856773991    7.61846179668406   -1.08320675523292
C         6.79574735561134    7.28459029748188    0.84680501853367
H         7.69016081651053    6.82687952611426    1.24375252324500
C         5.66929332349629    7.38686189249912    1.67075955198298
C         6.12770500277559    5.15040264095947    5.36592070604289
C         5.12695699597425    6.09865267040532    5.10599765857598
C         4.33307958149239    6.56047308537842    6.15557644797984
H         3.56122904551633    7.28981811097911    5.93538725588167
C         4.52286451215413    6.09525647719712    7.43920449076112
H         3.90124623400352    6.46038945581627    8.24147463357830
C         5.49436249285584    5.13692315961147    7.68845153900297
H         5.63175871741550    4.75058639392067    8.68652196826589
C         6.28405358420285    4.66447868447475    6.66007427923946
H         7.03364882672473    3.90794850023674    6.84097239636044
C         7.15833522209636    3.37776337856683    4.20204427116638
C         8.40132527147206    2.98433298668217    3.72321890684825
H         9.14971873618247    3.73483992914348    3.51824129402127
C         8.65790227368748    1.64152430919857    3.51597247256134
H         9.62488691455059    1.33441432512237    3.14571439437334
C         7.68290635437483    0.69601405562453    3.78580597917226
H         7.88773827925368   -0.35182252716130    3.62582205580900
C         6.44197308688520    1.09828113687619    4.25163501318260
H         5.67281383073963    0.36682242627734    4.44757536525978
C         6.16953838856946    2.43759274847671    4.46127745654628
H         5.19443428135880    2.76083449104579    4.79601527030148
C         1.73682874404134    8.77532942257615    1.12002282900155
C         1.24624781892686   10.07532135173178    1.15359448211953
H         1.66891043353711   10.79739083619226    1.83825885134732
C         0.21294620948794   10.43709781154595    0.30664684017473
H        -0.17036223661227   11.44654998543159    0.33103967977562
C        -0.33302523517281    9.50849337204386   -0.56387089908399
H        -1.14393908819171    9.79562170011471   -1.21667319033168
C         0.15186346772913    8.20958055952161   -0.59307675503431
H        -0.28222624930792    7.48478264042722   -1.26496996375248
C         1.18233424429272    7.83944296444232    0.24856076571675
H         1.55863412897859    6.82527276702148    0.25432035404929
C         3.46210200725222    9.60869728998652    3.27427388968438
C         2.69481705057969    9.75308357666520    4.42836413661419
H         1.89766140665846    9.04201612699288    4.61656750017716
C         2.95125408586497   10.78858812293025    5.30647729094020
H         2.35532401263107   10.90223129674594    6.19964473136905
C         3.98093324584097   11.67851743596790    5.03969208646063
H         4.18721133684345   12.48518680812706    5.72718846186233
C         4.74756205358588   11.53492106459603    3.89483997732225
H         5.54852580741661   12.23019147511224    3.69084124202259
C         4.49207849839061   10.50249314109390    3.00856728949096
H         5.08807638784685   10.38946873311859    2.11340841966275

