66
CSD_code = IPOPUZ | q = 0 | S = 0 | Stoichiometry = C22H38PtSSi4 | MND = 5
Pt       -0.12105137918019   14.72930060938601    2.46513087600878
S        -1.27750681287381   12.58080311112272    3.64376436941701
Si        0.98703198182797   15.40224007864814    4.50680386175454
Si        1.60481133663874   15.93707203021949    1.38662006476365
Si       -1.16457263355823   13.91959669036635    0.43668167089722
Si       -1.73281584175823   16.45073699471326    2.37347715566512
C         2.37218777450130   14.20002132623800    5.16935981746250
C         0.06928719442673   15.92342451860514    6.13015583702146
C         1.15052278269134   16.90206279342716   -0.20975379224846
C         2.91285879712740   14.58400249322976    0.94168622821151
C         2.07121691529665   16.91552233726026    4.04010410789148
C         2.33297794953124   17.13472516176653    2.68463508344504
C         3.13222205698076   18.20569488771431    2.30402467190327
C         3.66458563562583   19.06450624761921    3.24965671346271
C         3.40338547461678   18.85207381514208    4.59233185857138
C         2.61525500032971   17.78095292142951    4.97626413728726
C        -2.62044589047796   12.65222229142032    0.60375987270178
C        -0.13730032083972   13.15394073307602   -1.01320869769445
C        -3.09183244785911   15.83064977579010    3.59308611241019
C        -1.09944942680730   18.17285968754637    2.94328876738702
C        -2.08588470633625   15.43872169188449   -0.29146780084314
C        -2.52978412920448   15.50821311061430   -1.60269625623863
C        -3.20569741321192   16.61950015922658   -2.07586113891636
C        -3.45664494089577   17.68309694362253   -1.22600909526912
C        -3.02372286876852   17.62774737098797    0.08714083243923
C        -2.33490131020316   16.51778105064298    0.56194511398832
C         0.32396668520147   11.93845237470582    3.03612754794138
C        -1.05287134102622   12.38702419481875    5.43701938248081
H         1.97832809030932   13.30957602442722    5.65389470787317
H         2.98283747270556   14.72081798995364    5.90152105491678
H         3.03537455806110   13.87283393178692    4.37253530267859
H        -0.31230890567956   16.93602966375026    6.05112688848682
H         0.74238997805302   15.88660674809620    6.98125524331662
H        -0.77379989907055   15.27788137420673    6.35618459975090
H         0.59929937303060   16.27804324004663   -0.90210892735778
H         2.05011846124092   17.24557429801319   -0.70914660839716
H         0.53453547174768   17.76556598464892    0.01123639158081
H         3.27381740075836   14.06348348680645    1.82316418389966
H         3.76816759396405   15.06052860983225    0.47445246549540
H         2.51718190687054   13.85229837864988    0.24608084073552
H         3.33885853248121   18.37571594483473    1.25660611273675
H         4.28004187758132   19.89814030630503    2.94089521649200
H         3.81466558057615   19.52068608786686    5.33637132902082
H         2.41630064954492   17.61874348378720    6.02627198573259
H        -2.26823755559585   11.66504619578651    0.88922037988576
H        -3.14480796055681   12.55400139982644   -0.34261933308688
H        -3.34246209016166   12.96983398775763    1.34965165629543
H         0.52617448508725   13.88186916026828   -1.46746915395920
H        -0.79852439560064   12.77651262280824   -1.78635841939941
H         0.47044232089238   12.31901198493513   -0.67561896864590
H        -3.36023654283655   14.79652693205503    3.40333039239276
H        -3.98490634926366   16.43440640775880    3.47242210204282
H        -2.76101251840012   15.91666969488027    4.62201223865173
H        -0.67835203596467   18.12624966937917    3.93993838305689
H        -1.92026489885415   18.88174037659224    2.95736293455635
H        -0.33189612862376   18.55434378049104    2.28074885612422
H        -2.33837877838698   14.67980298763852   -2.26957723750809
H        -3.53782321891719   16.65878814875991   -3.10421195460344
H        -3.98548380794149   18.55422452762540   -1.58671672845443
H        -3.22137921901057   18.46109222234843    0.74658586954229
H         0.12060090075952   11.28898854704460    2.18828935441132
H         0.80506729557082   11.37423273148773    3.82900698331573
H         0.97133925999247   12.77359375966727    2.72092959247000
H        -0.17448308490983   12.92532946910888    5.77443748565325
H        -0.97698296198331   11.32704821692364    5.66696825085798
H        -1.94072897925925   12.79951622262840    5.90575922753865

