59
CSD_code = IPOQIO | q = 0 | S = 0 | Stoichiometry = C30H24IrN3O | MND = 6
Ir       -0.66331060903088    3.75824169173809    7.33215353450972
O        -0.13523034459223    2.97447362830371    5.23797483884709
N         0.00183928421399    1.98624765388413    7.98089569034409
N        -1.31738391911189    5.50964324604319    6.67389887422713
N         1.18717374763980    4.33455154550101    6.34251002928146
C         1.28273873135733    1.62289475737243    7.99255632324059
H         2.00394914208528    2.39035167483628    7.74700169152139
C         1.70210303655664    0.34218695170976    8.29468648370201
H         2.75306303492747    0.10134729587797    8.28722205796514
C         0.74444975985528   -0.61607527300540    8.59948501038193
H         1.03347866276627   -1.63020786705516    8.83085170175936
C        -0.58504105705603   -0.24466375016967    8.60324189313706
H        -1.34904356118457   -0.96770183242072    8.83793886018258
C        -0.94453217551010    1.06746753725379    8.29565539520405
C        -2.30322852067095    1.58699801666106    8.28337158188345
C        -3.43260611533841    0.83631032924423    8.61011392325206
H        -3.34087692769769   -0.20414036542731    8.88571284145496
C        -4.68102369613063    1.42184129420982    8.58069144077269
H        -5.55729275220946    0.84253318798832    8.83267157504647
C        -4.80707718063253    2.75743090287356    8.22756252448742
H        -5.78579958689555    3.21609422018485    8.20812123907635
C        -3.68860423795914    3.50502502474144    7.90044603509122
H        -3.81714632387405    4.54578023313806    7.63465403096641
C        -2.41358023351397    2.94690567495760    7.91619174663324
C        -1.71552265209619    5.72299868319206    5.42177264382013
H        -1.80964037768700    4.84595377003183    4.79478064536689
C        -1.99202847829580    6.98298614440670    4.92875068756287
H        -2.30946741499341    7.10701606709235    3.90573757474528
C        -1.84782520347706    8.07523522861164    5.77510916848838
H        -2.04597609670439    9.07542764767103    5.42034166189502
C        -1.44950602683044    7.85808886403501    7.07936779186153
H        -1.33216866327769    8.68753081280402    7.75751100572093
C        -1.19095557890642    6.56103245196232    7.51948033539623
C        -0.78428537317628    6.18104813532006    8.86253671323211
C        -0.61391150967737    7.07641987379937    9.91756101349174
H        -0.76807738698560    8.13487733678817    9.76811688124364
C        -0.24204300445264    6.61214295380804   11.16202113233791
H        -0.10763392158275    7.30410305170237   11.98037567951798
C        -0.04409759530049    5.25346522582700   11.36029912087134
H         0.24095281288916    4.89086074067760   12.33787149580669
C        -0.20681753586398    4.35995100540600   10.31498396315731
H        -0.04788155802019    3.30581486509696   10.49808710081687
C        -0.57400119972423    4.79593631570450    9.04624580288784
C         1.94092494164142    3.43777849170881    4.14241389672885
H         1.64706102956691    4.05557367153658    3.29463405311307
H         1.91962976482154    2.39827262794224    3.81983404071871
H         2.94626260584267    3.71165222914980    4.45403634568678
C         0.95163274585867    3.61013558680859    5.27188623462155
C         2.17802115357300    5.27109598542789    6.53865106146803
C         2.59658234189930    6.15916322710456    5.54337819794212
H         2.15335212795197    6.10772430481246    4.55939018247978
C         3.54598198341256    7.12322026465191    5.82087215170161
H         3.85776008146787    7.80170595791893    5.03878706469721
C         4.09142660618534    7.23188375476662    7.08856186063803
H         4.83493340759627    7.98666004872023    7.29792773333967
C         3.65982026635897    6.37674995471945    8.09037258162364
H         4.06350529438774    6.46693859996773    9.08865750028982
C         2.71167660597388    5.41205361747916    7.82422374768544
H         2.35509764962694    4.76086672491589    8.60941360607557

