48
CSD_code = IPOQEK | q = 0 | S = 0 | Stoichiometry = C15H28PtS2Si2 | MND = 4
Pt        1.00438419694998    7.23264418521444    8.96061283464278
S         1.02612075750804    7.89586995422748   11.45874162030176
S         2.82488588753886    9.08273241386273    8.43537670521912
Si       -1.08537928517351    6.22294576067134    8.88709941520775
Si        1.54326864117719    5.96980518304293    7.08301970030308
C        -1.11120110709962    4.99077420540126    7.42698421445519
C        -2.21575403953146    4.20465142486783    7.13504385744800
C        -2.19867516201713    3.31600117981030    6.07361934974321
C        -1.06194727116811    3.20626078349074    5.29152751284999
C         0.04491613497103    3.98705726259508    5.57792459577199
C         0.03536249306082    4.88087586526428    6.63814581126206
C        -2.49121822116397    7.52147179712021    8.55748988279774
C        -1.59876898090125    5.24561725957475   10.48119424406488
C         2.10455702827359    6.85569989002647    5.45715542640808
C         3.01780552963154    4.83247487121638    7.59640731408129
C         2.00343448450087    9.39748032801472   11.81570028835998
C         1.93864571651798   10.48849726690347   10.75110353408094
C         3.03948138990121   10.38326188454101    9.70365533285133
C        -0.62646936825882    8.53017577897739   11.85306334840448
C         1.45453862135490    9.82339482444151    7.48591820136834
H        -3.10597777217591    4.28545901373261    7.74465384586056
H        -3.06767131949176    2.70957707283152    5.85578232692177
H        -1.03994201345568    2.51225287464205    4.46198140730228
H         0.93076887503584    3.89486376462295    4.96428968567588
H        -2.59793841664172    8.23385496871997    9.36935814080381
H        -3.44001855809138    7.00797782280990    8.44430559901587
H        -2.30505208972694    8.07515389239970    7.64344277143486
H        -1.81670939828101    4.21306512945148   10.23214832404838
H        -2.48453575699673    5.66989706632081   10.94436865267068
H        -0.80166722342304    5.23914671026646   11.21806682301827
H         1.29613861746130    7.42158072495180    5.00593717738980
H         2.43302891839082    6.11878270429013    4.73170086775397
H         2.93766062944010    7.52647006650802    5.64122733037572
H         3.93521471680915    5.40339267641485    7.69311229588399
H         3.17824399937456    4.06224328895832    6.84945897879977
H         2.82203089602759    4.34248480175034    8.54430839504912
H         1.63400369624940    9.76800288037323   12.77274571534603
H         3.02797160549501    9.04980354940519   11.95149627928841
H         0.96104558867586   10.48043482475051   10.26137065420045
H         2.04215311374513   11.46017978620177   11.24442570672667
H         3.99809178209149   10.16539126166405   10.17559383094335
H         3.13031956878234   11.32270469106078    9.15539710082450
H        -0.87638797169108    9.38087804350409   11.22613489677255
H        -0.65106799950850    8.81362766727380   12.90302565587322
H        -1.32310257355694    7.72132826789037   11.66583505719830
H         1.47503903498255    9.35534647740021    6.50699632354247
H         1.62132944209505   10.89380510452514    7.39230177799417
H         0.49074316237521    9.61310274801317    7.95945118968802

