60
CSD_code = IPOQOV | q = 0 | S = 0 | Stoichiometry = C22H32ClN3OPd | MND = 4
Pd       -0.86708351032766    7.27163973549556   20.87568028178524
Cl       -2.38607375984783    6.67096520792789   19.34845100520343
O        -0.34426681402965    8.78501880400222   19.70666423045224
N        -1.29158573652014    5.68195320964758   21.98844321576653
N        -1.59566747055536    5.82845067455461   23.28473010792423
N         0.29616557748728    8.03261437941093   22.40324485610165
C        -1.01132216182921    3.88188124644517   20.34420965601253
H        -1.92225423945998    3.76006904735833   19.75964396181313
H        -0.49945229830362    2.92451701400428   20.40841390406206
H        -0.38110133400215    4.61487672115645   19.82768849225558
C        -1.34112201529408    4.38966064064512   21.69987707141018
C        -1.69893774711244    3.68427676978642   22.85923253186716
H        -1.83058695643385    2.62617790907667   22.95206350148680
C        -1.84493065115975    4.62744612091827   23.85562041999296
C        -2.20970958616591    4.46405863627703   25.28598402418976
H        -1.41112935777110    4.81629724946302   25.93905607408046
H        -2.38596091603047    3.41297386243886   25.49387894630285
H        -3.11725702116900    5.01965161624243   25.52043293499950
C        -1.44850099989727    7.12779949242193   23.88565995271395
H        -1.73919482215599    7.06886199175512   24.93497465689627
H        -2.10465485488912    7.84352354608025   23.35942356618839
C         0.01284736888127    7.60026869035860   23.75512875803288
H         0.18911516308482    8.41727708733950   24.46923801824266
H         0.67621343342063    6.76375847392894   24.01869000452391
C         1.07789533579679    9.05267089677772   22.23495203901451
H         1.53187576354267    9.49392005292518   23.12946999722459
C         1.45709046012390    9.65600446609080   21.01169125576626
C         2.54730677401123   10.55434540621857   21.04653246724998
H         3.00490417442660   10.72941631303011   22.00797662323108
C         3.02574937211758   11.15407240896591   19.91608180084127
C         2.40935789430146   10.81683965702374   18.69266369863641
H         2.82222287167664   11.24629032756063   17.79580734676435
C         1.33173234000979    9.98025085409257   18.58519226606115
C         0.76628120638783    9.41613757029601   19.78058641556321
C         4.18787164338438   12.13480550120227   19.90830003289273
C         4.73558032499015   12.40357944231926   21.31283021630578
H         3.96437373493676   12.81594378182714   21.95943582525652
H         5.54775950796086   13.12559666312412   21.25456354157604
H         5.12760329112495   11.49303809033281   21.76032993213602
C         3.71047324695566   13.46990375565613   19.31993872279656
H         3.36026953736138   13.35043988889940   18.29862191991040
H         4.52369840570743   14.19302696867318   19.31863608331823
H         2.89223159117651   13.87031995810523   19.91494019048307
C         5.32831030747498   11.56703731344422   19.05187799906505
H         5.65220016050967   10.60642128041650   19.44722125836838
H         6.17730629332491   12.24776223901384   19.05799410008201
H         5.01682533815025   11.42279264329279   18.02125932080862
C         0.72565767276059    9.59064534219940   17.24227044020038
C         1.50078183938238   10.18003654294808   16.05846788986136
H         2.53835845429724    9.85179273690927   16.06234053167718
H         1.46691994562228   11.26756846554933   16.06554537545682
H         1.04552468444265    9.83974369703449   15.13066137121212
C         0.75720365103145    8.05954801059624   17.10638240842304
H         0.35977536510550    7.76586599216826   16.13751073288945
H         0.15085137636458    7.58143602276604   17.87584653640220
H         1.78044522291466    7.69511410455836   17.18903558970144
C        -0.72219191699657   10.09254712185489   17.15877711558779
H        -1.14038788568368    9.85834944579929   16.18220701373995
H        -0.75748661589911   11.17096827226747   17.30433350368086
H        -1.33452065872265    9.61585063933923   17.91768826551091

