70
CSD_code = IPOROV | q = 0 | S = 0 | Stoichiometry = C25H43NZr | MND = 12
Zr        1.82631873959913    3.36967781920612    2.24414236803322
N        -0.21511901139357    3.48934254403574    2.28811210027264
C         2.33398128921090    5.95414227976938    1.65482815389222
C         1.57380787048347    5.88379252342692    2.84512891748697
C         2.35576636552290    5.21085308550718    3.83025211508074
C         3.62674135062284    4.91260933861285    3.24719143085099
C         3.59093053731740    5.34259358481560    1.89654321581375
C         2.00035492582827    6.78052709972704    0.44263687508843
C         0.31579614499929    6.66427465523717    3.11328974615548
C         2.01914447797602    5.13789262589890    5.30079904706590
C         4.91552697790552    4.72146695764235    4.00412716732511
C         4.78144877843823    5.41421076978980    0.97957394596656
C         1.78242183558042    1.31141490325381    3.84158066820124
C         3.14450772297497    1.73678200882654    3.83678347951650
C         3.65795917749196    1.54439096872132    2.52820736369276
C         2.62370845788489    0.98290937728547    1.73171569675739
C         1.46797349297613    0.82968088135027    2.54143285646892
C         1.01942650946486    1.07164155387256    5.12104075541869
C         3.94230525508197    1.86854572167020    5.10750632713118
C         5.08945817510787    1.62946788180815    2.06816638752956
C         2.83915428452712    0.31587667345371    0.39914057109653
C         0.23500161860961    0.09335758150710    2.08707551175369
C        -1.15153545142693    2.88710967001762    3.22253530962172
C        -1.52804132624434    3.78870325632332    4.41665785096020
C        -0.92490646524789    4.20526497337350    1.23999258565135
C        -1.47850684545306    3.28442496502216    0.13257309039366
C         2.05101065702717    3.34074195315764    0.01514477912163
H         0.95039989798032    6.69994205467482    0.16075643557639
H         2.60806237333105    6.48509719239575   -0.40987031201698
H         2.20736140110025    7.83462865211432    0.64545447540171
H         0.54013942617663    7.51135154767191    3.76783834962749
H        -0.45015551808746    6.06129216575778    3.59254116436361
H        -0.09195966530158    7.06357418711767    2.18814777773069
H         1.14228339998089    5.74781925073061    5.51371258856260
H         2.84364384152226    5.53068677978279    5.90017026699800
H         1.81638655909058    4.11709986174773    5.64133389999326
H         5.55487074292199    3.95824688263694    3.56613428752552
H         4.73510301668966    4.47411923976963    5.04590398550955
H         5.47570722085440    5.66112995277599    3.98095748371290
H         5.21788650452639    6.41623712849889    1.00767286337900
H         4.50806706685537    5.20499135278520   -0.05459521474590
H         5.55402999479881    4.71002810550636    1.28273319764020
H         1.65772239728152    0.53979032545000    5.83105852078758
H         0.14256006439710    0.44955532889825    4.95019809309469
H         0.69198503793552    1.99473647367276    5.60491759137501
H         3.53614474513520    2.61630264446643    5.78796220508232
H         4.98237807883068    2.10729549133359    4.90753816108949
H         3.92813533155820    0.91000741013681    5.63591165035214
H         5.40857143874659    0.65987808792566    1.68031901817000
H         5.75787441965530    1.88687191257240    2.88688276533260
H         5.21882951599811    2.36335874957689    1.26855019412492
H         3.21568157941954   -0.69952574727591    0.55820391907314
H         3.57251283239211    0.84741657275875   -0.20402243989913
H         1.91207910494500    0.23985200139949   -0.16585592201444
H        -0.36777497514389    0.69980416008566    1.40678284164577
H        -0.38835376416872   -0.19937152939813    2.92984799018527
H         0.52556333162084   -0.81836560467446    1.56323206741995
H        -0.72779320626230    1.96958391237634    3.63103596255091
H        -2.08857275774912    2.61167687986245    2.71264000892045
H        -0.62723398024455    4.11971001236937    4.93121694416517
H        -2.14959926869075    3.23367089282893    5.11733835378642
H        -2.09050704998240    4.65978342323119    4.08590589376569
H        -0.24182007993166    4.92186911393544    0.76884133959900
H        -1.77441863621149    4.77269725810205    1.65932859407740
H        -0.66721249939378    2.69811237608296   -0.29407334682191
H        -1.94007281792012    3.87910714982697   -0.65278622457203
H        -2.22962541806240    2.60424933157414    0.52962006449085
H         1.53163288070762    2.50616074078155   -0.47364750692332
H         3.11742123717815    3.23650267031425   -0.24234359132362
H         1.69673065065350    4.24892995451237   -0.48867271313980

