63
CSD_code = IPORUB | q = 1 | S = 0 | Stoichiometry = C24H37OZr(1+) | MND = 12
Zr        1.51864889677344    2.15031001566282    2.99940292428554
O         2.47165739788028    1.47100208257658    4.82832317297698
C         2.68471298391923    2.63409722314718    0.93898105374917
C         3.66324201976062    2.23175129153232    1.90170772554450
C         3.70639219521210    3.21683512401860    2.93033505358538
C         2.71086329529549    4.19684333665274    2.63548016646301
C         2.10314746031703    3.85736508869097    1.38454286425896
C         2.53583930620380    1.97892651612131   -0.40618515015027
C         4.57757511543198    1.04954866547358    1.71968723380215
C         4.80342956405417    3.37201723085593    3.95049897334211
C         2.44522103433245    5.44811977170203    3.43589006919500
C         1.27240379443285    4.79759181216161    0.55516365622114
C        -0.32884950991958    1.16187667006596    4.24574620664900
C        -0.57803229600139    2.53201779967087    4.45330623399722
C        -0.80145195876889    3.15613422863043    3.17225410887587
C        -0.68304888625878    2.16689493962391    2.17187467340659
C        -0.30187051520457    0.91872384701049    2.81746492611478
C        -0.29377354756294    0.07582291933860    5.28462566728726
C        -0.87948035794787    3.21943378083794    5.75654243878209
C        -1.37859574459061    4.53755231060376    3.04243053131818
C        -1.04650682764726    2.26898181256090    0.71748780262111
C         0.80013204921389    0.13052678442491    2.22877664170879
C         3.17448256995831    0.21401278878509    4.97332945259280
C         3.39274736109091    0.02485849990461    6.47173086825658
C         3.53885678513084    1.46780044632264    6.95064045854608
C         2.50791455689667    2.18608909922481    6.08447983190339
H         3.43084706752782    2.16796563878931   -1.00301127613568
H         1.68822043085059    2.37783238943530   -0.95874838662044
H         2.42527133634391    0.89651503983252   -0.31443630066108
H         4.01885736656632    0.10633072921198    1.72771083096632
H         5.34412552836491    1.01878925318508    2.49160592985971
H         5.08717748941732    1.12135069293015    0.75776074511565
H         5.69271780292728    3.76840100626510    3.45448530198897
H         5.08966902025962    2.42750810433019    4.41191339075757
H         4.53058890408491    4.07870010870021    4.73275032040877
H         1.92873317052243    5.23338430170371    4.38232006284375
H         1.83332582253398    6.14231189317527    2.86328128664699
H         3.38022319295405    5.95734012863183    3.67252814682780
H         0.49096515485449    5.28284493125789    1.13711461500759
H         0.81603842470058    4.28523163062050   -0.28771364812378
H         1.91796845018848    5.58023707572977    0.14963304844596
H         0.22618772835698    0.36753444820744    6.19674977362070
H         0.16212217465871   -0.83169993392643    4.88961202583517
H        -1.31768884726136   -0.17946916954401    5.56852913866440
H        -0.76763545349904    2.54094471944791    6.59966789260784
H        -1.91278926999733    3.57086706031262    5.75794748953784
H        -0.24113272494631    4.09264766387368    5.91532515268750
H        -2.33896618990578    4.58404431099308    3.56001306430182
H        -1.55767854482417    4.79870235446299    2.00231477461625
H        -0.72977376279343    5.29146002421364    3.49320587957564
H        -1.97011676561904    1.71345085425444    0.54028877818674
H        -0.27767846121148    1.83467599450872    0.07493742634791
H        -1.22315051572424    3.29934565698788    0.41885486812265
H         0.70624070165738   -0.04274972913549    1.15082372162384
H         1.02366098623106   -0.81007880460409    2.74750885110191
H         4.13530886248701    0.28336821090949    4.44634269193066
H         2.56927525748225   -0.57921816340078    4.52162859470707
H         4.26849424909140   -0.58141320277100    6.68539677715702
H         2.52309542737273   -0.44408002626181    6.93211572509119
H         3.33400621125114    1.58302391420990    8.01140258567347
H         4.54372047229367    1.83842790779248    6.74763664102418
H         1.51630555711920    2.13729698075255    6.55092666256042
H         2.76500700367496    3.23324191931695    5.88765983236031

