78
CSD_code = IPOSAI | q = 0 | S = 0 | Stoichiometry = C32H40ClN2OPPd | MND = 5
Pd        6.83652423360287    5.31481603603058    2.54414857175622
Cl        8.26991620930960    6.10977824049245    0.89427386655570
P         6.47338387943401    7.38991569177942    3.31034768883668
C         8.27808869951795    9.18485762314462    3.92644121182600
H         7.78815951283641   10.02061771635484    4.45559466086320
C         7.94590600180572    9.25435250512589    2.43942046642779
H         8.59447682806987    8.54899538409360    1.89786191612698
C         8.22862978152099   10.65638378381637    1.92277410727051
H         7.63605065303301   11.38670046886165    2.47796106238316
H         7.97872614440125   10.74033814797465    0.86470264655291
C         9.72493710739550   10.91737214319387    2.11453559874657
H        10.28108637178160   10.22475433757521    1.47991000206794
H         9.96588806680155   11.93297580491097    1.79437999248649
C        10.16201163938317   10.72337884009832    3.56681581679339
H        11.24218428143201   10.86013525565654    3.64087813569206
H         9.68594318377341   11.48395997327593    4.19100133375638
C         9.78218965096113    9.33957099305924    4.09925666506875
H        10.30149377961524    8.55857030589684    3.54177561825299
H        10.06419555716063    9.25540626054323    5.14946445447879
N         7.66770350661665    7.94237382601905    4.35167220811794
C         8.08239477008894    7.22211961722711    5.53027411587532
H         7.29996813032507    6.47397473850859    5.72090920627270
H         8.10926336340203    7.90700505397008    6.38741888041857
C         9.40959781760339    6.51117491352281    5.40364231405862
C         9.65142023301468    5.66751911584212    4.32666508279070
H         8.88413594217242    5.54567122320414    3.55240604748636
C        10.85986609021649    5.00471239019121    4.20870393011819
H        11.03853807151452    4.36334531526851    3.35808134926655
C        11.83823704681827    5.16827469304590    5.17578272718672
H        12.78163346770640    4.65013505875634    5.08646946797198
C        11.60176606635232    5.99878720848003    6.25730478782122
H        12.36065693146561    6.12971143015036    7.01508047144194
C        10.39479216336821    6.66767032727879    6.36902748099640
H        10.21549942194742    7.31735588872240    7.21499616705983
N         6.55828896870537    8.79234155568098    2.35670576128877
C         6.05505757239346    8.64906611731555    0.98582810681205
H         6.76907962128854    8.08351331124451    0.37396840506795
H         5.94706513160522    9.65622027116707    0.56881965706134
C         4.71921012431173    7.96146237741010    0.99866895027422
C         3.57042997229367    8.70031698882952    1.25475203120699
H         3.65337665707348    9.76298186505072    1.43488742312015
C         2.32531148987153    8.09676422662021    1.26684717046633
H         1.44077602876705    8.68624492212222    1.46350570643822
C         2.21370375180192    6.74294819030324    1.00318978348698
H         1.24242357693500    6.26967042642221    0.99587238205887
C         3.35014632485991    6.00062786975025    0.73018042588504
H         3.25187649348115    4.95513984049358    0.47900160421810
C         4.60257330787449    6.59613029168373    0.74133726245585
H         5.48608111330672    6.00745871199261    0.47095305043869
O         5.05476323622555    7.49370258207632    4.06328940848934
C         4.51410593066319    8.72644256365595    4.56146841898683
H         4.66582223800159    9.49701857126156    3.79691984817968
C         3.02214284390461    8.50662430792678    4.79064747774278
H         2.55574176070875    8.18148822167367    3.86467542418224
H         2.56085731223422    9.43222872057060    5.12598622599633
H         2.87045573969430    7.74121674160189    5.54692593065422
C         5.20576693619447    9.14142461422991    5.83309525126935
C         5.32656765620618    8.24375271175290    6.88624356403599
H         4.93715394338642    7.24266026939808    6.77327802981525
C         5.95324712692135    8.61857320670057    8.06065722175522
H         6.04487971632892    7.91076433466012    8.87168795104701
C         6.46240000623593    9.89953052754708    8.19748373080139
H         6.95151236176560   10.19324470943146    9.11457714233128
C         6.34177354517135   10.80158238562283    7.15463709629641
H         6.73744291431444   11.80162429203141    7.25723008640979
C         5.71602827862880   10.42457398130372    5.97846419173964
H         5.61538138375827   11.13305280601068    5.16817173666611
C         7.25864355903758    3.25915584268123    2.24118183643137
H         8.12615157020086    3.11133448214277    2.89027385572137
H         7.33968961303781    2.78005274695622    1.26962991661984
C         5.98656107564202    3.41421242421261    2.81396506437451
C         5.90194751856865    4.14870273725247    4.01580050565019
H         6.68655877262678    4.02398278651231    4.76519518588771
H         4.91997143379992    4.36024058946228    4.42428106638257
C         4.74583524966185    3.04689714231862    2.04960517067290
H         4.90528957942471    3.13225339764843    0.97333206573888
H         3.90529183313857    3.67286659309210    2.34857902529432
H         4.49395212550782    2.00739843212292    2.27042179774133

