103
CSD_code = IPOTOX | q = 0 | S = 0 | Stoichiometry = C44H45B9ClHgP3 | MND = 4
Hg        1.21642373929686   12.61138833063301    2.59566396065304
P         3.05595147797135   10.70655396722346    2.98416734815397
P         1.95346553618395   12.96102793587678    5.04519278280158
P         2.52437792396333   14.01692763368032    0.59382339220914
Cl       -0.78624713104856   12.45489029401899    1.42994837869253
C         3.01368694428201   10.31189895758578    4.76884380584321
C         2.45867845390823   11.37288817975709    5.75710799545272
B         1.52228152083075    8.90810573338929    6.66324552789945
H         0.65718759986161    8.15796704283569    6.93428221050736
B         2.51455854840989    8.68517711743737    5.26517473822374
H         2.40936019025776    7.87237116843973    4.41973300342313
B         3.30545812683001    8.51811460734607    6.82387623206866
H         3.65657244743375    7.45367615053030    7.19208976930458
B         2.53061721900480    9.70504015088012    7.90490920624474
H         2.41376654246679    9.51951987312421    9.06219992628897
B         1.38902636522822   10.64430235779108    6.98836104135573
H         0.43895539559127   11.23601675155725    7.35794482930679
B         1.39158778412056   10.04230577162799    5.33236760733518
H         0.53311524978836   10.26251573179161    4.53417152325542
B         3.02380193655538   11.30253526614917    7.28132021128743
H         3.05195375799072   12.31529599681913    7.90171081210803
B         4.19460440599256   10.03420870844672    7.31891204648417
H         5.10180831451143    9.90915550254776    8.07027243407521
B         4.16186565480697    9.38908315219880    5.48095092548445
H         5.02084002441908    8.91630339029335    4.81570136326215
C         4.79987741019679   11.07960233868746    2.60480564380621
C         5.61706128832908   11.69988455947211    3.54442151944205
H         5.24004236777797   11.89681112820992    4.53565295655855
C         6.91015657230515   12.06487112275265    3.21696665447372
H         7.53605258449390   12.53718902323860    3.96008264478430
C         7.39746872331907   11.82757263815891    1.94250579261110
H         8.40798300137511   12.10943677773461    1.68598927003263
C         6.58207120514060   11.22976379401982    0.99383319438288
H         6.95375840669264   11.04852675435673   -0.00403491107429
C         5.28958863680934   10.86451895818737    1.31746561382931
H         4.65512920139408   10.40173941218289    0.57411285087221
C         2.79364974135496    9.14790818229394    2.08429317388830
C         1.52981408317855    8.91618618981611    1.54955509709139
H         0.75086372630905    9.66307101982477    1.66914789849199
C         1.26286973381608    7.74180800552363    0.87131529740139
H         0.27869252670517    7.56857343231583    0.46144214109139
C         2.25890461051316    6.79159562089423    0.71841744414263
H         2.05358949890702    5.87394073532246    0.18717048035165
C         3.51854500298448    7.01596595967858    1.25207374616399
H         4.29260902091395    6.27092453879335    1.13994097826344
C         3.78932708100154    8.18609501242885    1.93506197093565
H         4.76810616755549    8.35276203986806    2.36040887148454
C         3.36845049278734   14.12209828014248    5.05689862754246
C         4.52926954765804   13.94713391164035    5.80027062104796
H         4.63332170109170   13.08449689821869    6.44286743421765
C         5.53508468609564   14.89685160215492    5.73925435863013
H         6.43511105055913   14.75692927193854    6.32007981240843
C         5.38828121186821   16.02506668714040    4.95037470989643
H         6.17398850786896   16.76476204555610    4.91014845038518
C         4.22861423176287   16.20956124173307    4.21420118695405
H         4.10813535506291   17.08998447950088    3.60020307184125
C         3.22990528191751   15.25762635236083    4.26244701206806
H         2.31808535729679   15.39357807016767    3.68459625064077
C         0.80035702163635   13.75194128341285    6.19963272644717
C         1.22700369702015   14.55971691616181    7.24733262402940
H         2.28048863329358   14.75463602707737    7.38680610313076
C         0.29483110805312   15.10724894246679    8.11040597277455
H         0.62507962993238   15.72983500216563    8.92890300943940
C        -1.05579643174243   14.85807245118049    7.93100095094758
H        -1.77781810998480   15.28614444130218    8.61039260705078
C        -1.48373053642888   14.06394719220467    6.87804465227375
H        -2.53711918438615   13.87437958181337    6.73448792671337
C        -0.55928255396665   13.51535200893506    6.01128867368788
H        -0.88386542269215   12.89381482929918    5.18257739127649
C         3.15193419152391   12.76838363568770   -0.57293142497460
C         4.36170552915810   12.88070843648456   -1.24910995569009
H         4.98554589211163   13.75196338982324   -1.10791962537373
C         4.76563901723604   11.86785815639324   -2.10154220753212
H         5.70310475890766   11.95858202221885   -2.63080299817574
C         3.97787562722017   10.74162841535147   -2.27587286834162
H         4.30580581491539    9.95034488236646   -2.93355574077220
C         2.76901723669277   10.62919079374849   -1.60629080343206
H         2.15386623343038    9.75145945776229   -1.73744185085800
C         2.35502681041673   11.63982562495771   -0.75959541504958
H         1.40372901127487   11.56447739154630   -0.24501655349399
C         1.33592238847265   14.95403715437395   -0.41097308337524
C         0.34083461881802   15.65990313247304    0.25895270332545
H         0.29432564311684   15.62059007603333    1.34157492511927
C        -0.58988126643090   16.39003544284948   -0.45538715258788
H        -1.36588066325539   16.93130360919205    0.06510119560590
C        -0.53307866936638   16.41348383251681   -1.83971696019576
H        -1.26574488873222   16.97585659960325   -2.39923401140340
C         0.45498822483766   15.70893774178434   -2.50876166799016
H         0.49318875875670   15.72474691422651   -3.58817635971095
C         1.39101664207926   14.97736374693864   -1.80056481803131
H         2.15765226624558   14.42015269758756   -2.32126276921654
C         3.92860097138197   15.15801086140191    0.77971835101299
C         5.04487211640842   14.66991751037419    1.45504058707187
H         5.03857369015358   13.65295903361463    1.82165292701429
C         6.14825157868514   15.47701530252577    1.64636117726352
H         7.01316777095250   15.08643712359497    2.16108088192958
C         6.13523802604322   16.78451858456853    1.18532642425007
H         6.99515431105335   17.41978875893944    1.33735299109174
C         5.01671197216177   17.28013985535231    0.53559485898287
H         5.00461464735688   18.30149031324509    0.18381424018745
C         3.91060458706682   16.47293208153787    0.33097798864494
H         3.03965853447273   16.86108036827353   -0.17856737909890
H         4.76200472239539   10.32308252024844    6.20336081950378

