71
CSD_code = IPOVOZ | q = 0 | S = 0 | Stoichiometry = C35H28Br2N2O2PRe | MND = 6
Re        8.01112090654685    2.17746995954418   11.03087157593430
N         6.69232810598413    1.15745785512336   10.47374957381497
N         8.11178827816801    1.51648068806801   13.19519997626152
O         9.19443853799288    3.51308745339961   11.95785957458942
O         9.90149115151492    4.47213487661037   13.83932920071561
P         6.42638134647729    4.02129173883627   11.51853367755151
Br        9.87560298462735    0.56639435711908   10.65695713804971
Br        8.41398253286463    3.19350590112249    8.81249116900643
C         4.76174159402722    3.71556901216489   10.84929775741353
C         4.68614572576019    3.48359674482498    9.47654019689107
H         5.58459163163620    3.52977631234161    8.87624429831076
C         3.46991502463386    3.19530917067097    8.88849978413599
H         3.41991778298428    3.01387829903265    7.82588398835212
C         2.32265299646997    3.13254194037239    9.66323667200235
H         1.37263940078966    2.89801748012114    9.20687611557323
C         2.39181962169781    3.38151668993771   11.02331159789191
H         1.49617222142033    3.34976412465928   11.62640800593278
C         3.60593045993244    3.67538288361421   11.61955839263486
H         3.64812339652768    3.88068426604652   12.68004603132090
C         6.79653046458066    5.70604297806922   10.95241157498495
C         5.73916812900617    6.59693892241593   10.77296240198058
H         4.72254258608758    6.27046927492841   10.94404343038296
C         5.99484920413848    7.89409044773256   10.37265934382940
H         5.17376043829370    8.58180769107265   10.23308885112681
C         7.29791488511881    8.30999384798579   10.14611807414806
H         7.49172150676297    9.32348939731821    9.82795914481572
C         8.34880030448898    7.42696908487688   10.32475062834271
H         9.36427808270524    7.74649694416881   10.14755283277534
C         8.10314278497681    6.12662549117035   10.72795216154478
H         8.93209149189298    5.44909040546439   10.86738764464138
C         6.22598122160891    4.16902164259330   13.31312995633814
C         6.72787992729533    5.25437339119042   14.02182329644194
H         7.17015298155835    6.08757595289562   13.49402825028290
C         6.67176330474983    5.25711767253516   15.40507380639891
H         7.07233681358992    6.09667199706981   15.95223592944373
C         6.11916283435963    4.18431971001406   16.08363104165067
H         6.08413657439444    4.18829563291902   17.16272285493044
C         5.61928738707661    3.09741247062743   15.38072218514525
H         5.19468662400209    2.25577146481354   15.90909078336503
C         5.68163153812483    3.08388188227427   14.00176412887225
H         5.32437880219686    2.22785904464406   13.44125085373548
C         5.61018010300880    0.58065441386281    9.94835753935509
C         5.57703904459046    0.33555498296577    8.55990356392605
H         6.45231462167126    0.58130591243044    7.97811585144059
C         4.44283760304190   -0.18261781797502    7.98356344685248
H         4.42369971766753   -0.35931580333227    6.91823189422936
C         3.31408331296362   -0.48314319820178    8.74615005418823
C         3.35788104056688   -0.25939407613066   10.11954151502754
H         2.49402819466317   -0.49412489434882   10.72450428834212
C         4.48175186073221    0.25728007359762   10.72259991151445
H         4.51078253174582    0.43001888277986   11.78809230469108
C         2.08415997656713   -1.02195689465778    8.08940125893358
H         1.37261819978480   -1.38625258504064    8.82571705805447
H         2.33715269470283   -1.83334979892187    7.40960894365460
H         1.60281789758780   -0.23917352689455    7.50289422597370
C         7.62009515467063    0.38813060653906   13.76708518185886
C         7.04977863866570   -0.63099946548060   12.98227610856330
H         7.05790351719646   -0.52485378588471   11.90802770658202
C         6.53472592377457   -1.75564640119244   13.56724417743787
H         6.10919441249087   -2.53159064688600   12.94966423266034
C         6.56425188124616   -1.91578686307471   14.95995220139060
H         6.14479137903005   -2.80597249684670   15.40345886036794
C         7.14337353498988   -0.95924913555402   15.74665489624910
H         7.20016741901327   -1.08198334268027   16.81836528625590
C         7.69848297639343    0.20394073888641   15.17745219703388
C         8.35074234510973    1.18472893721402   15.95377507170490
H         8.41935507236556    1.05568222350384   17.02383743846969
C         8.90543412478671    2.26530574243634   15.33107051564939
H         9.44912215327998    3.04083808958694   15.84637444290214
C         8.75401974357537    2.38714305619068   13.94382294416034
C         9.35483333696586    3.58445197276392   13.21770298092820

