41
CSD_code = IPTBNI | q = 0 | S = 0 | Stoichiometry = C10H20N6NiS4 | MND = 4
Ni        0.00017621441054    0.00044716153864   -0.00027562423991
S         2.10317292893996   -0.00425028878692    0.59713037972969
S        -0.61289768008288    1.26462755885516    1.67266204041705
N         1.85073877003658    1.52426101572203    2.87429408260138
C         2.55677787528623    0.80978645097687    2.02961162366674
C         0.55974429014201    1.77479257563565    2.81488669369605
N         3.86562922765682    0.69867153026787    2.33073565107975
N         0.04783947100264    2.53208177336984    3.79716340649449
C         0.81451714222536    3.17365332366480    4.84305988673695
C         1.16116508332242    4.60841427668042    4.44286482525958
C         0.01697454493434    3.13294371820043    6.14186967401793
H         4.47139822019742    0.18974910642615    1.71307146936509
H         4.22984457005071    1.17152583430521    3.13852799642647
H        -0.92859669311213    2.77275991904951    3.71288145564781
H         1.73614626981394    2.59377981964049    4.94546183127285
H         0.25442420269007    5.19424387493847    4.30849405927440
H         1.71707430863818    4.60728486455119    3.50906244811558
H         1.76893107144529    5.07769108340158    5.21151964082716
H         0.59953684721834    3.56125812271549    6.95264572983837
H        -0.23626827521154    2.10771258629695    6.39891406587596
H        -0.90343203515589    3.70421495726674    6.03900918592167
S        -2.10277779550546    0.00550487093659   -0.59774927179208
S         0.61314602486326   -1.26384703043879   -1.67323697238352
C        -2.55642532289403   -0.80823580351100   -2.03037961205227
C        -0.55978493259935   -1.77477020183421   -2.81482915230755
N        -1.85063880880186   -1.52356267189388   -2.87453417722285
N        -3.86503830206166   -0.69598231939424   -2.33213133494700
N        -0.04830776007276   -2.53335884114710   -3.79631990189342
H        -4.47067165880248   -0.18667980257331   -1.71464658905573
H        -4.22938861341824   -1.16894759054536   -3.13979834701798
C        -0.81517889708617   -3.17528435230396   -4.84184613451691
H         0.92814020544138   -2.77402707140968   -3.71213098931532
C        -1.15883447433102   -4.61098179680108   -4.44245884672928
C        -0.01943766134052   -3.13211542062603   -6.14170334790823
H        -1.73787593224402   -2.59682707931282   -4.94252481454634
H        -0.25091936320144   -5.19541008654490   -4.30991521120445
H        -1.71342930341320   -4.61169209739329   -3.50787417014859
H        -1.76688799296194   -5.08059147589370   -5.21068411685356
H        -0.60236678719733   -3.56072804768687   -6.95206107281509
H         0.23169156574071   -2.10622768387307   -6.39819133874031
H         0.90208945543991   -3.70188476247148   -6.04057512056968

