25
CSD_code = IPTCNI | q = 0 | S = 0 | Stoichiometry = C14H4N2NiS4 | MND = 4
C        -9.27145885629915    4.70017074073612    0.00163870963600
C       -10.47332507711193    4.71994819200681   -0.37858745196580
C        -4.86943816767717    6.73425397625758   -0.53121140380742
C        -5.25071143392415    5.56228241314603   -0.26284504402174
C        -7.30312308577939    2.55461164078853   -0.17778017181440
C        -5.66580628574852    4.28566099260377   -0.22239702528047
C        -7.93944680095946    4.87614805789658    0.01849437833794
H        -4.95891544657024    3.46422162230722   -0.28747522548832
H        -7.52584254377693    5.88012138997557    0.08804396824771
Ni       -7.81186943960789    0.00026983909827   -0.01783152609184
N        -6.98196527995522    3.90765930512838   -0.13143424622060
S        -8.84567888313961    1.96609625767664    0.14365060739464
S        -6.14686392467452    1.37741886009581   -0.56208075536883
S        -6.77645347473356   -1.96724736082863   -0.16780830983147
S        -9.47783200406925   -1.37518112318716    0.52628189266532
C        -8.31835808976877   -2.55460996402960    0.15836780765782
N        -8.63743974512156   -3.90865772845831    0.12663480949402
C        -9.95358674156850   -4.28715875945630    0.21377826920506
C        -7.67742453725792   -4.87761498025740   -0.00403393762559
C       -10.74886920117914   -6.73340644431487    0.54272605334259
C       -10.36746460021948   -5.56388612647332    0.26410817055866
H       -10.66183674539261   -3.46613078895470    0.26736580376610
C        -6.34603266460875   -4.69994652938363    0.03116882981038
C        -5.15074882258326   -4.71256871978270    0.43167800604130
H        -8.08950814827249   -5.88245476259044   -0.07045220864092

