44
CSD_code = IPUGAB | q = 1 | S = 0 | Stoichiometry = C12H25N6Ni(1+) | MND = 4
Ni       -0.84600978472768    6.92294355213235    3.37355830046298
N        -2.41487747302027    5.85815133824208    3.10042012447555
N        -0.50413513897512    6.99390946849265    1.55936613059906
N         0.66013891644250    7.96315599639792    3.62594074219319
N        -3.13840793330927    5.60445807357791    5.28502685949917
N        -1.19271670430782    6.85728252297443    5.25689504801981
C         0.45855833348633    7.59985498357844    0.89814965479329
C        -3.26221610768309    5.38992489532220    3.94128517247181
N         1.42160527438762    8.32499268637796    1.43882588761384
C        -2.14414419135432    6.30082515621538    5.91217240397697
C         1.49397611389936    8.47983800102136    2.74962217182998
C         0.53489938137047    7.44627876485388   -0.59641865159452
C        -2.28738926848672    6.40418013006243    7.40277891139753
C         2.67224152126826    9.28107384992998    3.23159399458845
C        -4.48377020442257    4.61702580216254    3.53645642890268
C         1.37096020858178    6.21128070886965   -0.94051151095504
C        -3.22308429366357    7.56656262184997    7.75770889218353
C        -5.69658454404263    5.55351627281491    3.46850525475632
C         3.89436183228843    8.36746768331011    3.34994274173407
H        -2.65675671631590    5.61196410147540    2.13962821058499
H        -1.13372150791409    6.48520152768176    0.93611373438797
H         0.91789870783516    8.20081332883351    4.58543865936995
H        -3.85795503127159    5.20796396702569    5.87613504586276
H        -0.53599155049489    7.33952834255465    5.87211485013778
H         1.01845656677862    8.33264318633109   -1.00381386870313
H        -0.46530340693976    7.35369326556477   -1.02445019760449
H        -1.31037607908684    6.57704824207749    7.85644998968218
H        -2.68726010728418    5.47390889956786    7.81004578706074
H         2.45570467884596    9.74651464493488    4.19518021442073
H         2.87725717492469   10.05808565991292    2.49656428479051
H        -4.32539213592962    4.16114330676802    2.55800990961308
H        -4.67797573450114    3.81635503292273    4.25254525892316
H         1.44503511598190    6.10356734912492   -2.01900421025595
H         0.92285233848741    5.30795412213881   -0.53131593654678
H         2.37212424470764    6.31623389703249   -0.53234345827559
H        -3.30869904293846    7.64848645779419    8.83709301099942
H        -4.21807904088469    7.41283868837376    7.34701523364892
H        -2.83395517153139    8.50582467823443    7.37263877730674
H        -6.57264292890032    4.99274583158043    3.15673794876282
H        -5.52687680425991    6.35130228542499    2.74968469320759
H        -5.90554728540310    6.00223518489512    4.43669118731650
H         4.75681900864196    8.94359179326883    3.67314053864428
H         4.11546116251719    7.92044511948016    2.38511373998709
H         3.71851760720354    7.57098857881473    4.07016803973000

