67
CSD_code = IPUHIK | q = 0 | S = 0 | Stoichiometry = C20H36Cl2N4NiO4 | MND = 6
Ni        3.60872457630403    0.02889663746614    0.07716237591538
Cl        2.54382927897062   -1.93695542678146    0.11478076975698
N         5.16041028314384   -0.69757849037331   -1.63754678460435
N         1.97373214671639    0.70630189317008    1.76320309296892
O         6.44732305191288   -0.23059395845393   -1.32576817725455
O         1.59620209300057   -0.36853891942728    2.58054733821358
C         5.11564425854682   -1.59842670659835   -2.52772016978392
C         0.67968509249603    2.09230546027907    3.34665658409922
C         6.27662943874063   -2.19147579083410   -3.26894316165749
C         1.52093948232917    1.83030713374747    2.13481556788382
C         5.66178228746154   -3.31794074404096   -4.09969168679087
C         1.75126147776863    3.10228740895691    1.38336275726258
C         0.21456684508792    3.53870384203533    3.18224632114985
C         4.22501846215752   -2.85079683944644   -4.34072601299234
C         3.83497797110952   -2.19263605675935   -3.01728521411651
C         1.33693987827613    4.19131163437901    2.37281993088008
H         6.27113789038899    0.55423966668523   -0.76201649067470
H         1.87445055693420   -1.15661269729905    2.06954710968340
H        -0.13358291832504    1.36948790519953    3.42066328907791
H         1.30512923566701    1.96758394484476    4.23447180365444
H         6.71541343161529   -1.41498877487346   -3.90169707973758
H         7.05817041548170   -2.52556512305797   -2.58563156428162
H         6.20370380712470   -3.49735503733530   -5.02691757609392
H         5.65543415790652   -4.24361943999944   -3.52173549552188
H         2.77685291927640    3.20289423697226    1.03357317517179
H         1.09588287713340    3.10493535166132    0.50785791518650
H        -0.71597080268047    3.56578357163424    2.61204481775154
H         0.04530327545781    4.03552981392043    4.13644400605219
H         4.20535126454772   -2.11119587895471   -5.14361627112735
H         3.55903000422884   -3.66826533226906   -4.61083018789555
H         3.49072374689832   -2.94263622419586   -2.30137713023557
H         3.04757904307452   -1.44600457002073   -3.10873546187261
H         2.17604820745411    4.43111499126353    3.02830939931737
H         1.01814398308373    5.10657604966347    1.87608203118692
Cl        4.77731895856999    1.93211727368897    0.11385782691701
N         2.39226404760937    0.68516023823964   -1.21805174231434
O         1.06991345001856    0.35800845835025   -0.92750018418842
H         1.12687538987792   -0.47416643326422   -0.39902014151150
C         2.50286261987174    1.44653908828594   -2.23367785041123
C         1.32444367263618    1.90309043941022   -3.04368144413712
C         1.91557600749136    2.82798343367173   -4.10752583853287
C         3.35108776570912    2.32693084491320   -4.26630215017202
C         3.76073728277513    1.96675378090470   -2.83805843445879
H         4.07000354379153    2.86272374517130   -2.29409492409378
H         4.57326742226718    1.24653752721561   -2.78181473232732
H         3.36818462822420    1.43364854054222   -4.89345083968056
H         4.00923566086971    3.07128771839935   -4.71008329855304
H         1.35538162966941    2.79905256130770   -5.04045764265158
H         1.92278250584728    3.85641706011042   -3.74361675052680
H         0.84615555647605    1.02388598795713   -3.48398339622007
H         0.57790413401455    2.38300311568615   -2.40999496833670
N         4.73263653408316   -0.56767090842130    1.45038996874189
O         4.68621636798060    0.30388030461472    2.53632752238247
H         4.60059245349405    1.19872309819746    2.13669852421868
C         5.43165801268014   -1.61015623159547    1.66522844151471
C         6.13087847400701   -1.87446269755416    2.96382917773492
C         7.01291682349834   -3.09047802963484    2.68600054944071
C         6.25189720077040   -3.84181488774244    1.59377238212858
C         5.69797193249876   -2.72335735171998    0.71092688093751
H         4.81493440558991   -3.01442856622696    0.14681516700288
H         6.45942155450654   -2.38238245704531    0.00461211481459
H         5.42764308465344   -4.40563974435580    2.03344469489647
H         6.88448507768590   -4.53260781215550    1.03902860879775
H         7.98313345150282   -2.76613409852695    2.30604863096985
H         7.17705730050787   -3.69662242442550    3.57493579086538
H         6.67782027182535   -0.99279852514602    3.30044483843634
H         5.37217505968810   -2.09009658001659    3.72070339774792

