63
CSD_code = IPURIU | q = 0 | S = 0 | Stoichiometry = C30H26Cl2N4Ni | MND = 4
Ni        2.63724879201230    6.15571809268121   11.91795627644946
Cl        3.05823544691496    4.87385128224389   10.26606883677711
Cl        1.87881107829440    6.86283125621580   13.77768506749150
N         4.31211347374942    5.80071923458646   12.68644379612565
N         6.51309082944681    6.07333941159446   12.74878514252081
N         1.27331140921401    7.01686625298769   10.95293973667739
N         0.43874513077163    8.86029880948910   10.04320826410066
C         5.35774185950627    6.34084341256419   12.08618756088939
C         6.17586484750098    5.31794971747963   13.85011070993868
C         4.77707027468306    5.15136676302826   13.79796925541347
C         4.10573176795286    4.41454936714433   14.76675237734850
H         3.03443737115981    4.30243227585721   14.71686975481157
C         4.86410625090581    3.85992818874062   15.77426985398715
H         4.38043970959612    3.28338376861418   16.54789471652616
C         6.25139276981435    4.01979958417239   15.81974827065682
H         6.80620067649856    3.55994408350884   16.62394340392996
C         6.93165777583037    4.74721409176782   14.86422437124113
H         8.00490680643065    4.85534103799429   14.90428493608863
C         7.83340476152145    6.56844311406200   12.45055339557065
H         7.82987146606307    6.96724606990775   11.43385761373110
H         8.53450427955770    5.72873590756407   12.49627953160370
C         8.26244366056035    7.65623032987958   13.43341112117818
H         7.59696799727776    8.51378593102550   13.37008363262969
H         9.27207194808267    7.98363139045213   13.20047466068459
H         8.24069807526400    7.28360303782358   14.45401517701494
C         5.24790028711837    6.99262484087044   10.77647688609790
C         4.30779562965794    8.01361939639966   10.55267019629243
C         4.07106013606662    8.42797370558719    9.24370469523088
H         3.35003758057860    9.21407871312956    9.06610092654543
C         4.74869219713008    7.86106092099769    8.18145407006779
H         4.53636568923043    8.18578299938386    7.17399780649194
C         5.69721871960482    6.87928068872502    8.41093387900712
H         6.22753495719021    6.43121492088901    7.58498355204500
C         5.93771175377246    6.44212905192704    9.69913668737729
H         6.61983241705677    5.62241981112458    9.86984396427735
C         1.36630547140727    8.33232125387232   10.88219356007362
C         0.24613648327002    6.64268303385833   10.12796109282233
C        -0.28810680675792    7.80579855877717    9.53699223279837
C        -1.33109514070635    7.73709099209606    8.62461316624118
H        -1.73320904947218    8.62029031558714    8.15197153505050
C        -1.83196463132083    6.48329611114544    8.33842105790707
H        -2.64425693185133    6.38997461286704    7.63309115643372
C        -1.31578886300303    5.33064700937909    8.93573435910767
H        -1.74415870865782    4.37402330552792    8.67848432969051
C        -0.27359060035525    5.38726685435519    9.83497053369961
H         0.14798263579199    4.50569537728158   10.29036524689547
C         0.24876047560591   10.24955564611543    9.71262775057335
H         0.19923294231626   10.33988098587382    8.62187638745605
H         1.11901104268803   10.80561200418848   10.07196884212026
C        -1.02780821933310   10.81202953390183   10.33340906469835
H        -1.89744816855406   10.26144196277006    9.98483014928233
H        -1.14068809276127   11.85706632174267   10.05800127439477
H        -0.99285097021171   10.73977736302592   11.41725512418104
C         2.32174581917695    9.09415037399306   11.69499691090274
C         3.69346619403302    8.78835627292048   11.65553852822383
C         4.53514014292847    9.38059203863070   12.59344603962568
H         5.59095385823260    9.15241101014841   12.55894419015316
C         4.04629711196147   10.25766349968680   13.54239532829902
H         4.71552830188205   10.69093530640978   14.27052028504920
C         2.70058343128585   10.58100585182826   13.55413519626534
H         2.31177182600178   11.26600183883075   14.29157134549031
C         1.84485391176652    9.99703964811755   12.64013644138373
H         0.78587870862763   10.19555545664423   12.69492874436920

