67
CSD_code = IPUSES | q = 0 | S = 0 | Stoichiometry = C26H32Cl2N4O2Pd | MND = 4
C         7.49016801746515   13.72819360298210    9.60076199577122
C         8.34729923637906   14.81627014330193    9.15913092111423
C         9.31903512972862   15.32084184643407   10.02742961101963
H         9.48022509116209   14.84092767187568   10.99546481498057
C        10.11651780204691   16.37276573712461    9.61567734770593
H        10.88404274698673   16.75620017378042   10.27186086121412
C         9.94335099706561   16.93018990075689    8.35742563575109
H        10.56170210483233   17.75935771389515    8.04718430146583
C         8.98543819706978   16.42212436310123    7.49528222176868
H         8.85594127502952   16.85541153895413    6.51509381758263
C         8.19122420741979   15.36122111099960    7.88747091467952
H         7.43794047828942   14.96102803864988    7.22731956450070
C         6.33327266473606   12.29784073188337   10.81821695889193
H         6.89234673129165   11.47549434246654   11.29200802984682
C         4.95234409522141   12.49804976919115   11.45388777108417
H         4.87931829402581   11.99563701782031   12.41670960281155
H         4.77076520669895   13.57293361827959   11.58776115774995
C         4.00571160955141   11.92339524863836   10.40110591304385
H         3.92272551940508   10.84270249338842   10.52409548053422
H         3.01235247967781   12.36326139940379   10.45155466188922
C         4.69189569105645   12.23438511591837    9.06214610296401
C         4.40994176586889   13.67234898080999    8.61969228014860
H         4.74904982105980   14.40282896259277    9.35322857828686
H         3.34024117650395   13.80181904273063    8.47739488823642
H         4.90609191393545   13.88120776447025    7.67424696714980
C         4.30021833263684   11.25307782171178    7.96097571081868
H         4.84854497406941   11.47766514848465    7.04997443859141
H         3.23508015332070   11.32409414849152    7.75783591989667
H         4.53942316504519   10.23723647895799    8.26355853338004
N         7.16375064994743   13.48390487045031   10.81869780568230
N         6.11395775826219   11.99413172535044    9.39627898699037
O         7.00017362832816   12.86905929360539    8.70131591678881
Cl        5.98264520620982   16.22680596338698   10.97614965731492
Pd        7.18417251974792   14.79279456827624   12.29093275169782
C         6.88083080456568   15.85459212657991   14.98156837302356
C         6.02638017626106   14.76391131090782   15.42218619310450
C         5.05151056666988   14.26272536774154   14.55539788057187
H         4.88642533942429   14.74676953913861   13.59013653182586
C         4.25608975860989   13.20864202217268   14.96563593364088
H         3.48588911428870   12.82804921999923   14.31093417565107
C         4.43482510760562   12.64541486981817   16.22053442466368
H         3.81814577422725   11.81452335966744   16.52950305626567
C         5.39623715039216   13.14976490847791   17.08094297967867
H         5.53024690440759   12.71169259416319   18.05838529242497
C         6.18811253157177   14.21311165700369   16.69055116653830
H         6.94413608246386   14.61036273778749   17.34934327033559
C         8.03242480397308   17.28927266483595   13.76424810925729
H         7.47128159848566   18.11115388775107   13.29213535940602
C         9.41293413614071   17.09238887736498   13.12664350838236
H         9.48339409322886   17.59447414072819   12.16344721555318
H         9.59706812968863   16.01790569767133   12.99310966097407
C        10.35931696689285   17.66977577359133   14.17809078793774
H        10.43823647292796   18.75082927073890   14.05555712552808
H        11.35415150890571   17.23347522669128   14.12581575064302
C         9.67629439910810   17.35567723008912   15.51796273729675
C         9.96324213082833   15.91825282053997   15.95894490833541
H         9.62471761528645   15.18725928248691   15.22565185254328
H        11.03357713392394   15.79173527820256   16.09910047253897
H         9.46948433249421   15.70744993176998   16.90520872247437
C        10.06688164153838   18.33739508265412   16.61915426847638
H         9.52175485277215   18.10981665315630   17.53133043398547
H        11.13280382701613   18.27032287358233   16.81952063874955
H         9.82298190910964   19.35258828133381   16.31815528014882
N         7.20436387877295   16.10161669724170   13.76342720468957
N         8.25295902246897   17.59177547962462   15.18633423943680
O         7.37050643054335   16.71316295067295   15.88155555733400
Cl        8.38768716532878   13.35980583765311   13.60501676723416

