68
CSD_code = IPUYIB | q = 1 | S = 0 | Stoichiometry = C18H42MoN3O3Si(1+) | MND = 6
Mo        5.16914469729083   10.44601879419654    6.15538481946239
Si        5.33076851406823   13.03403697993030    8.17167770985721
O         5.69634785146835   11.95089627436382    6.97408461118954
O         3.69928774656485   10.75210375201909    5.48175342769609
N         7.48967076418535    9.97998670489302    5.99045924774602
N         5.35310548576444    8.75153955904265    4.70885815440203
O         5.09159847152158    9.27404628550835    7.30853265021354
N         5.98113640351608   11.41378493508481    4.15730216747913
C         5.29276804785952   10.63892944114626    3.11676669935973
H         5.60397497484437   10.95618266746443    2.11069910091261
H         4.22251474237302   10.83172179439203    3.23238204364769
C         7.74935068190343    8.70337432489073    5.29954341890117
H         8.48560104787188    8.10820836764656    5.85142476891448
H         8.17855318113997    8.89211281956235    4.31193290856440
C         8.13283253704767   11.11080697562062    5.31143498888381
H         9.20429967158426   10.92226140953685    5.14805227708816
H         8.03223599024290   11.98315045419601    5.96644675881384
C         7.44331676350551   11.40828453542331    3.97687782608182
H         7.79350788152228   12.37819299664530    3.60558106371012
H         7.72711023414591   10.66653993072905    3.22552806752092
C         5.54150908021811    9.14102887029180    3.29494869099093
H         4.84638687249285    8.59169666375417    2.65152275473298
H         6.54994896188224    8.87738428838771    2.96556806529318
C         4.09222298527724    7.99887044637344    4.84254031434393
H         4.13670078433822    7.07190623046449    4.25965204706273
H         3.26341358582678    8.61971131056587    4.50104651503515
H         3.91658884686949    7.76716843221548    5.89481133040843
C         6.45464911147423    7.89925085363569    5.18114029341633
H         6.60132303693606    7.03825274078302    4.51447526056383
H         6.17065213893190    7.53596083135255    6.17354448924479
C         3.43754864779107   12.76065772984165    8.39595919516067
H         3.30316922575689   11.66509351942469    8.39104392125202
C         7.98597975445473    9.89518503519683    7.36836383080997
H         9.07091282948494    9.73651186158899    7.38276487966549
H         7.48854614739658    9.07343952183273    7.88137713539579
H         7.74872932684961   10.81450417875204    7.90088615758354
C         5.83492899186785   14.76833930351618    7.48724826045151
H         5.37851398450464   14.88759015021609    6.49676271864909
C         6.37544810308223   12.45094799152240    9.68784786503048
H         7.41451669610714   12.32475853603176    9.35413010442436
C         5.48200587191936   12.79377303412148    4.12752377050586
H         5.64988706818459   13.24688068692111    3.14316045606414
H         5.98773282806140   13.38321806871381    4.89118655187438
H         4.41467528177996   12.79727171951816    4.34617640657798
C         5.87250373772961   11.08457370469540   10.17151730344567
H         6.59768137567939   10.62426842715156   10.84089870575365
H         5.68389288594877   10.40996476405925    9.33489217872273
H         4.94204501170261   11.20154231456099   10.71955291527384
C         5.31201023120616   15.91169165211000    8.35270140533783
H         5.71148240115346   15.85232732334213    9.35976762311960
H         4.22866520269990   15.88588935758114    8.41510883677737
H         5.60378221207206   16.87080291847809    7.92837452152933
C         2.85136836857439   13.31766167906191    9.69152249129358
H         2.97375494656748   14.39676639792885    9.74017812165217
H         3.32836764302549   12.87985436624178   10.56290938286636
H         1.78687743927881   13.09708331109807    9.74705630613930
C         2.65185341157395   13.30071979784517    7.19715721636637
H         1.58640459151054   13.13474049117385    7.34551065093004
H         2.95091101652785   12.77409247721265    6.29199754542341
H         2.81092942499449   14.36837281753910    7.06328473539166
C         7.34978322428052   14.90482647352953    7.31606898515605
H         7.59693212796742   15.86101922925412    6.85764190036639
H         7.75130676565949   14.11166735514919    6.68546044597605
H         7.84903793841821   14.85617046012224    8.27994124816165
C         6.41635728974974   13.43370016344693   10.85668834368368
H         5.41598264977056   13.67465520841283   11.20182441832619
H         6.91088070830587   14.35816050144758   10.57213711829328
H         6.96757354568806   13.00056780124884   11.68960387504072

