68
CSD_code = IPUZOI | q = 1 | S = 0 | Stoichiometry = C18H42N3O3SiW(1+) | MND = 6
W         5.51086689152354   25.68920347202692    0.69043052644359
O         6.42502693218004   27.25169514840722    1.32114243299590
O         5.35291425045539   24.53430489494933    1.91340553678207
Si        5.84178361087797   28.12323992061543    2.56896403609768
O         4.07261296443407   26.06010273720663   -0.11063879072866
N         5.56114777759996   23.86276753100218   -0.69321323955458
N         6.45107435360035   26.41352954739226   -1.41922200480174
C         6.07054147068671   27.83413991334287   -1.49915556504300
H         6.63773152221816   28.41078996302656   -0.76615182025118
H         5.00811746751697   27.92875307587949   -1.26436992961536
H         6.25567696570145   28.23547814262197   -2.50344113190621
N         7.83653111589278   24.97856054457072    0.46763873001407
C         7.95751834707712   23.63087685944397   -0.12897817228879
H         8.37318849035804   23.70358381389879   -1.13694071458622
H         8.65046069705690   23.01021877580808    0.45082883837749
C         5.65884906697887   25.64601362265466   -2.39747808228786
H         5.96207839778915   25.87445578559155   -3.42947501129549
H         4.61365262286560   25.94283027654752   -2.25388427358959
C         6.58588515693812   22.94900697638269   -0.15617930477794
H         6.63538900950942   22.01716195991739   -0.73735303861161
H         6.28465597353470   22.71694845044017    0.87316953025405
C         5.76554933663277   24.13926341214059   -2.13340641587668
H         6.73672834422194   23.75597598545668   -2.45633787844396
H         5.00821843213776   23.62476260723806   -2.73441466707409
C         7.90330133972069   26.26524064130170   -1.63890919778152
H         8.32969690066434   27.17361853496145   -2.07884739424910
H         8.09545697219273   25.45480361337740   -2.34633653418446
C         8.59347531552782   25.98528557348705   -0.29716885236216
H         9.63294724772037   25.66706775082316   -0.46301562887230
H         8.60368728186524   26.90635831198696    0.29656542952122
C         8.33330605445591   24.94065859824813    1.85197839771152
H         9.39185522299510   24.65291299837935    1.88197920114341
H         7.74377981143301   24.22303177605793    2.42318693594126
H         8.21552068674319   25.92287620278797    2.31006851684480
C         6.85945251244464   27.56296737888598    4.11931829666100
H         7.91228927727293   27.54245455397075    3.80696079076497
C         4.22483245425586   23.26325652681681   -0.48220769615660
H         4.14765180981764   22.29618888884582   -0.99406385747900
H         3.46381645592010   23.95474408678653   -0.85381318986891
H         4.05783617027345   23.13806654569372    0.59434101227202
C         6.07503312941857   29.97463889536398    2.08454142576815
H         5.60614037879214   30.12316329527033    1.10357011359560
C         6.46867451042482   26.13771094208051    4.54609218667671
H         7.30054856525770   25.63911681614654    5.04071686622640
H         6.14442500406587   25.53340856862064    3.69364930911231
H         5.64620781202501   26.17459116995044    5.25458863155736
C         3.98006372548564   27.57653861546064    2.66921744049892
H         3.97063975585058   26.48100577596460    2.40678062831030
C         5.41359933504233   30.95127118433124    3.05185520179240
H         5.86121293278023   30.88302003415991    4.03751760954224
H         4.35117101713774   30.75043084974113    3.14829209398256
H         5.53422765785126   31.97326490562294    2.69697420894011
C         3.31404417213758   27.75935894371685    4.03251281109786
H         3.31947435227974   28.80941712699093    4.31625880239127
H         3.82140550475592   27.19245152965506    4.80524764584452
H         2.27879607866274   27.42485249860555    3.99742456246737
C         6.78878972122958   28.49904514683022    5.32409554473992
H         5.76152548869943   28.65331408754229    5.63929728501652
H         7.22556567320298   29.46528832815991    5.09050826992904
H         7.34200167611649   28.07437903581085    6.15992265028324
C         3.13977290618433   28.29270872312851    1.60546760057934
H         2.10291073816300   27.96500875992229    1.66281400518783
H         3.51155207476933   28.04875058883039    0.60874252979190
H         3.16153905361979   29.37085612051387    1.74386204506847
C         7.55724172938952   30.32049778606828    1.93382524929332
H         7.67762792729576   31.33735962051064    1.56487383229636
H         8.04821565834448   29.64281871773877    1.23749521678332
H         8.06468870990865   30.24733653432593    2.89148041309335

