57
CSD_code = IQAHIS | q = 0 | S = 0 | Stoichiometry = C22H27AgN4O3 | MND = 3
Ag       -4.99360228771174    4.77181241735539    7.75041030939757
N        -5.97548778197680    2.71539184611882    7.54776998560963
N        -8.28200936010098   -0.18394672386418    5.59845276290020
N        -4.13564391904330    6.46288751391517    9.05291975111929
N        -2.48846473827018   10.30899220934995    9.17036970911463
O        -5.37297107255170    6.41077081508713    6.03499748401412
O        -3.56914918427235    5.14359226797501    5.86171098608026
O         0.69139797494570    9.77821562809768    6.91055211411585
H         1.44076027404877    9.17565708129242    6.98401353148581
C        -5.54886233365204    2.10696218789158    6.43684753012672
H        -4.57592180912654    2.41636564241612    6.07635980745853
C        -6.26559075916732    1.14658175623492    5.76295873189362
H        -5.83963148214229    0.71300731494493    4.87457146405696
C        -7.53393553428089    0.75476108921545    6.23171141194908
C        -7.96861241702010    1.39494037185120    7.40661170890229
H        -8.92071799211868    1.16244620049886    7.85248410564151
C        -7.17102135789714    2.34311578937942    8.00526983071556
H        -7.50211907809057    2.82817098495261    8.91395219844079
C        -7.81025251950813   -0.78725386157097    4.37524904987151
H        -7.65091839895946   -0.03400796920405    3.59798324778048
H        -8.54720259556618   -1.49939475894302    4.01313711594452
H        -6.87143520048740   -1.32317278185367    4.54071511019671
C        -9.59257616601497   -0.52800685155344    6.09404672978427
H        -9.53308502265349   -0.93383607613119    7.10799816119195
H       -10.03707320801965   -1.28466965677052    5.45274751738630
H       -10.25416408246055    0.34357328455152    6.10414822943357
C        -2.81820769950632    6.66290071024311    9.13957134955819
H        -2.20984880175143    5.76963047499923    9.19988910664765
C        -2.22247117070012    7.90167721598415    9.17231873764852
H        -1.14897831226616    7.96472244232692    9.23119817670180
C        -3.01237255195850    9.06279179484533    9.09301529242811
C        -4.39621069038042    8.84271564139781    8.96123584360242
H        -5.08690219058697    9.66608930570460    8.89105632208489
C        -4.89060849081646    7.56135638175953    8.95220484957630
H        -5.95826771432699    7.39625844457604    8.88057263919865
C        -3.26230179156203   11.46768836346469    8.79827047224884
H        -3.88510568824070   11.24575052916264    7.93178666460878
H        -2.58465605160891   12.27633134411253    8.52950413472173
H        -3.90394905297493   11.80983716521494    9.61881792445573
C        -1.13273450088805   10.54243391211948    9.60798040352684
H        -0.84770783611951    9.80490952445406   10.35772787515331
H        -1.07595837833206   11.52788415388538   10.06989269184910
H        -0.42131374528722   10.50322401310958    8.77862089410137
C        -4.25902682113904    6.13526393591770    5.55396286473492
C        -3.67470237068855    7.10374718519505    4.50034962775672
H        -3.33786289055785    6.50659886282186    3.65146059548947
H        -4.45339383279200    7.79773913710647    4.18605567144188
C        -2.52129927302526    7.82072079861747    5.12400067877800
C        -1.35551757082255    7.12433908815692    5.42382311938507
H        -1.30501842501267    6.06984601665891    5.20212714315395
C        -0.28435552674160    7.75854877513048    6.02123958788155
H         0.61890285179594    7.20575371664393    6.24943188197525
C        -0.35849648875275    9.11084529347017    6.32361853610620
C        -1.52011938405448    9.81570522427013    6.04115124271143
H        -1.56467385560945   10.86799527536885    6.27587240581247
C        -2.59103328182078    9.16835984202068    5.45423677856346
H        -3.49381841142051    9.72257971003094    5.24051790350588

