47
CSD_code = IQAKIU | q = -1 | S = 0 | Stoichiometry = C6H22B18Co(1-) | MND = 10
Co        2.00704734533739    7.13294795039934   10.77681495258739
C         1.53019488231046    9.16403348374513   10.42560277552937
H         1.12420096906048    9.57139941962181   11.35124152593310
C         3.05169921797872    8.92971622169660   10.36942589301680
H         3.62822915970375    9.18469567506402   11.25800782882301
B         0.69425988645336    8.09617424342943    9.48073875500007
H        -0.44251632493321    7.88981322991834    9.71549540552184
B         0.92395014250571    9.78672726743817    8.94690800345525
H        -0.01076437900350   10.51417118320000    8.98398753522041
B         2.45823202681478   10.34115030652894    9.55726770575804
H         2.63758958974451   11.38714561310228   10.08416595493143
B         3.45608701558830    7.67268948127248    9.37764053408726
H         4.48908103780867    7.12462504103974    9.52181140584210
B         1.92706792749189    7.07642384174766    8.72513018875201
B         1.20734627562086    8.45246729299511    7.81906648997688
H         0.48894020342507    8.26848605613010    6.89526373519100
B         2.31928164388553    9.85314494387051    7.86908435879030
H         2.40753972768219   10.64433043390872    6.99099537444956
B         3.70662374025624    9.36050149724997    8.84361779573789
H         4.81657859652901    9.77291125430479    8.80298492935291
B         2.95336680148966    8.18783479773303    7.75361133752070
H         3.51438523308425    7.80565171529935    6.78284535787743
C         1.72077957131124    5.56071614178652    8.31036398729610
H         1.64221268343884    5.27178755522446    7.26172761110442
C         2.73387185684266    6.73584340046871   12.72358262004809
H         3.33317555508838    7.59217865426474   13.03197773214898
C         1.20363437440726    6.91304687880006   12.72408497301246
H         0.81448580327292    7.88304337155114   13.03173806539739
B         1.87879255496863    6.03529777317997   14.05737027281473
H         1.94519076273714    6.59572830730442   15.09919651614073
B         3.24194962250697    5.66065244314213   11.57565317191726
H         4.35534824728201    5.71424736774781   11.19169947765450
B         0.46438282742348    5.98124696379059   11.57843564210543
H        -0.60718595087931    6.27718151641968   11.18804128316043
B         3.19871033557182    5.18850991698837   13.29928569034506
H         4.22949202625925    5.08896636439692   13.87532054257058
B         1.76628324072035    5.09311974002603   10.78129434808493
B         2.54507457231017    4.10265392972197   12.06384392857630
H         3.07840856463954    3.07674447888378   11.80611698499900
B         1.68385109068805    4.34040018695604   13.61387085233733
H         1.58746151325998    3.49579086816540   14.43979203859918
B         0.40033326612787    5.51206049658199   13.30250030243859
H        -0.62565293651475    5.64845929121377   13.87911302910630
B         0.78953635536432    4.30507793169133   12.06866863663567
H         0.03596351807696    3.42843682247830   11.81016799307786
C         1.66994912194348    4.63388576297186    9.26742963064259
H         1.54403070431850    3.58238288654863    9.00711682643139

