33
CSD_code = IQAKAM | q = 0 | S = 0 | Stoichiometry = C12H10F6O3STi | MND = 12
Ti       12.44690116444464    2.90848277610317    2.39889169765801
S        11.77297477887747    2.90870416862014    5.54241459234952
O        11.78005784140720    2.90837607250230    4.04256476100625
O        12.21853670208032    4.14379208989558    6.08298148863454
F        15.35270828794265    2.90844889129238    2.40322482332664
F        14.48644838024166    3.98283618030718    4.08131840683491
F         9.29380969488552    2.90860016206336    6.78093479964582
F         9.49749204490175    3.98326044419825    4.91589534475395
C        14.28449246032528    2.90842501562466    3.27147834551586
C        11.36988085592877    4.32725180931875    0.83617692687574
H        10.61516939641625    4.09245357732491    0.09902816962579
C        12.75974614660222    4.39748625662683    0.59941010952271
H        13.25658914679405    4.22017847713544   -0.34680990742038
C        13.36093463188960    4.96850514004617    1.74278310650465
H        14.39278585659576    5.28814145056029    1.81777049145769
C        12.33962167056908    5.25003602245184    2.68324782174470
H        12.47260636774364    5.74105758220506    3.63868362425332
C        11.11424667230681    4.84046265528609    2.12664685024698
H        10.13746248603451    4.99874082792814    2.56444003136499
C         9.90062217337931    2.90841560805286    5.60511801877485
O        12.21894465354863    1.67402533156322    6.08357504037177
F         9.49782503123571    1.83313700521808    4.91637769776941
F        14.48643187210938    1.83394901528622    4.08123660389083
C        11.36982567585646    1.48982115336598    0.83612388279037
H        10.61510992532345    1.72467727093938    0.09900071111053
C        12.75968679463975    1.41957285969755    0.59933228390551
C        13.36087987987805    0.84846623668458    1.74265922844311
H        13.25652434652656    1.59692941541452   -0.34688134375127
H        14.39272811570869    0.52880803870013    1.81761760760492
C        12.33957334078435    0.56688717962116    2.68311440944054
C        11.11419933707419    0.97652498795654    2.12656137486800
H        12.47256361506660    0.07580188271281    3.63851715234612
H        10.13742065288161    0.81824441529602    2.56436584853462

