60
CSD_code = IQAPOF | q = 0 | S = 0 | Stoichiometry = C24H26CoN5O4 | MND = 6
Co        3.97619145964785    1.31096771398044    3.45148204445344
O         3.38011680725502    2.97275671282158    5.56786576449449
O         2.58034641892105    0.79187143963589    1.13258271691261
O         4.69089437394828   -0.52829942368850    1.31143035132723
O         5.54847391900495    1.77437860986879    5.86422780944972
N         3.03716937406923    2.60244315682741    4.37538846264971
N         2.61824955024098    1.49810039268416    2.21526677838363
N         5.02207225364643    0.00704070993545    2.50240630184321
N         5.43721067629867    1.12075819722988    4.69183376249928
N         2.88201720351131   -0.16583444253140    4.42309163417702
C         1.93029040611488    2.99302222702122    3.80963360688704
C         0.96877844264825    3.89931519182466    4.45082113988118
C         1.40769293179670    5.04877296103229    5.10285748539243
C         0.49858919548830    5.89659739887485    5.70732466345836
C        -0.85481250748693    5.60599393695506    5.67507445703791
C        -1.29682070800611    4.45620103605291    5.04105057712204
C        -0.39376245817031    3.60516618586003    4.43396099892654
C         1.70413926535819    2.37380448809060    2.52314998061574
C         0.58207779400763    2.73126699944630    1.64569352322805
C         0.25132231989830    4.07219776439349    1.45369160220645
C        -0.79735250117482    4.41864072186157    0.62446207939432
C        -1.52791331440823    3.43645605030216   -0.02476810379581
C        -1.19723852421034    2.10391607296523    0.15210725672177
C        -0.14739447549071    1.75033527184652    0.97940304951240
C         2.34790865640278   -1.17583219046657    3.73827026745147
C         1.59801108779450   -2.17473428388293    4.33419626093277
C         1.38822792135006   -2.13058735191472    5.70305108793142
C         1.93856397223670   -1.07780961948537    6.41534636482736
C         2.67430021363335   -0.12090747532296    5.73762904129555
C         6.12535125306488   -0.34918099156984    3.06822179521685
C         6.36413652234871    0.29396526511325    4.34212334355407
C         7.58469295992238    0.01071036454917    5.15403595867523
C         7.08921642135708   -1.32822910212095    2.48399319518689
C         4.92906058473229    2.74471408536224    2.46443076440054
H         4.68282140709390    2.38967359908669    5.87377755745923
H         3.79106911159042   -0.01870919928524    1.06466004462802
H         2.46240688386478    5.27428312750780    5.13052364619957
H         0.84833436170526    6.78885594216912    6.20572532220734
H        -1.56374565891411    6.27040294269163    6.14715281695765
H        -2.35091331205419    4.21995859004317    5.02113421826000
H        -0.74122919881003    2.70327264662374    3.95158503946472
H         0.82739056949920    4.84037827074541    1.94742347873100
H        -1.04465008300585    5.46044783103288    0.48139133797625
H        -2.34886415713296    3.71022226446180   -0.67128608607009
H        -1.75969488497174    1.33490928648737   -0.35731918193903
H         0.11024712760139    0.71105112960189    1.11264914374328
H         2.51418383429577   -1.19008427119611    2.66968554649761
H         1.18696233128864   -2.96885768927049    3.73126612691662
H         0.80804891701658   -2.89358774366277    6.19996747120031
H         1.80123648078711   -0.99118211661411    7.48138415538360
H         3.09794396623229    0.71586798581039    6.27656074882323
H         7.58034147348313    0.63752908410871    6.04245720838048
H         8.48169577360935    0.21768916437434    4.57253286130224
H         7.60828757627212   -1.03603855434380    5.45487730602318
H         6.69481582755475   -1.70600217384626    1.54399390781250
H         7.25222448354364   -2.15976289931215    3.16797235532250
H         8.04844222382707   -0.84672976756509    2.29892906893420
H         5.91758434658648    2.91323840492141    2.89031074355604
H         4.39093793207816    3.69107188017484    2.48339111488565
H         5.05481517120934    2.45912419170405    1.42061802509185

