73
CSD_code = IQATAW | q = 1 | S = 0 | Stoichiometry = C31H32N5O4Ru(1+) | MND = 8
Ru        5.29084621547919    5.97985746707994   -5.92242790918071
O         3.98918618725400    2.26861984656706   -5.10529622455983
O         4.88395947739467    0.36305786688190   -4.26982384826529
O         5.33069511911787    9.76115703853628   -6.74970636652100
O         6.80997726519206   11.45541270569314   -6.44633563722096
N         6.44107899765927    4.37918561191974   -5.14703018374728
N         7.29135410400103    2.38859453735078   -4.63800961323629
N         6.59217299918386    7.35261990848982   -4.99164132964349
N         7.67125494574180    9.19358636682447   -4.36458269917683
N         6.49623181273080    5.99885130017996   -7.38232885463851
C         6.26840068613478    3.07423958254732   -5.20361122614596
C         5.23216345624665    2.13502428440670   -5.73920765960237
C         5.76917273298390    0.74178821969079   -5.28736526328217
C         7.18114396085854    0.95733603970479   -4.70643555670367
C         8.20267896745907    3.29515617230142   -4.18051709568920
C         9.44065842164466    3.19059677212174   -3.53051787029033
C        10.09339437116962    4.35006366030864   -3.21093408092121
C         9.56106400121982    5.63425185541843   -3.50010958840172
C        10.23994819370135    6.82464570243530   -3.12791758216482
C         9.72845315940963    8.07253296286228   -3.36058202554580
C         8.48236364391614    8.15822454108344   -3.99731358156624
C         7.70278486313245   10.62959743207976   -4.31341490859897
C         6.46845704771355   11.03999851802200   -5.15226403436120
C         5.62534634280741    9.75118169012116   -5.38359537672731
C         6.56246817080985    8.66858515632272   -4.94113252288973
C         7.78616983540712    7.00837910425433   -4.40351638093241
C         8.31168711020022    5.73006067850470   -4.16163179439972
C         7.64703135607885    4.54283787586998   -4.50634845604005
C         3.03385384929415    1.33238828153308   -3.10073219886333
C         3.65352850246462    1.03753277365172   -4.46067887039346
C         2.70795221222806    0.22593743101610   -5.35039056436884
C         7.45610056723180    9.64139268573412   -7.93356531752709
C         6.32129078597442   10.53078149890029   -7.41410933686009
C         5.65935665004662   11.30007032208655   -8.55229893968986
C         3.42805242981508    6.16052354225636   -7.20086966560058
C         3.48910359335525    7.25668195624457   -6.30782214246599
C         3.40044066157074    6.73468709963796   -4.97752941429875
C         3.32179201707316    5.33228532005430   -5.06220232360528
C         3.36408007505137    4.96568842634169   -6.44282708781104
C         7.13749186357393    6.02799536561396   -8.34518554832915
C         7.95391452223289    6.05350523138498   -9.52495762789319
H         4.86486298940925   11.92365267256193   -8.15353232807381
H         5.23942275103297   10.60071642649420   -9.26751750182401
H         6.39576718523100   11.93084613652579   -9.03850096555333
H         8.22890636899205   10.26673750167779   -8.37066942878866
H         7.05643736800514    8.96795538925824   -8.68568606226929
H         7.88669817322010    9.04870951824781   -7.12939968886929
H         8.41754734247583    5.07854106854270   -9.67952429657880
H         8.73625029902382    6.80606899027058   -9.42126531672906
H         7.34193703382293    6.29453241722564  -10.39440394215927
H         1.78954475830902    0.78392871648512   -5.50584558434188
H         2.48128474521025   -0.72009476851738   -4.86816948244591
H         3.16898818808783    0.02946154995386   -6.31587893360278
H         3.72401021580432    1.92359019063847   -2.50486378481767
H         2.83180217313103    0.39755386998424   -2.58849308390931
H         2.10898581552415    1.88374743290324   -3.23551588381023
H         7.95705759344991    0.53728668193538   -5.35170126633570
H         7.24475388536207    0.50147726996574   -3.71497952598542
H         7.62391157614634   10.98613137594613   -3.28314670920065
H         8.61543659444276   11.02652695710943   -4.76486534254391
H         4.68112023583852    9.72339863931028   -4.83196173459058
H         5.12158469140664    2.23630736747505   -6.82722941509756
H         5.77234967486716    0.00617826041982   -6.10112926709198
H         5.90827338732740   11.84414811570456   -4.66526896685165
H         3.12658864664580    4.64829286057328   -4.24824295941496
H         3.35936468737366    6.23143701655633   -8.27829431645668
H        11.04790856968484    4.29983097022541   -2.71013256912311
H         3.40540464400255    8.29467774940640   -6.59216027088104
H         3.14523147033512    3.98089641855836   -6.82541492835850
H        10.25714466141248    8.96288482585442   -3.06060507560247
H        11.19397893640470    6.72790167570961   -2.63304022984975
H         9.85813026469597    2.22594603819561   -3.29082621730547
H         3.25861389873248    7.32101783256920   -4.07806821302968

