73
CSD_code = IQAXED | q = 0 | S = 0 | Stoichiometry = C31H38Cl2OTi | MND = 8
Ti       -0.02335711525587    1.91645193447136   19.88935419109377
Cl       -0.91869148650011   -0.03503570712139   19.41025993855032
Cl        1.06463529915729    1.09261972099321   21.59575001204727
O         1.10970429339407    2.06859851866818   18.68518501584608
C        -2.05575468032288    2.95800374957244   19.40720083881076
C        -2.16486006269451    2.47197888036803   20.72940669552571
C        -1.20681817131097    3.12967526383381   21.51700744959084
C        -0.48889582779063    4.02329048853004   20.68773665386062
C        -1.02687060303530    3.92765936414713   19.38096049918789
C         1.96726036803533    2.55580941632034   17.78612374878650
C         2.92678697479224    3.47428678054556   18.24492934975620
C         3.81918245451010    4.06327044419613   17.36279505548598
C         3.77756590290900    3.77263274075364   16.00929901488082
C         2.83730704845792    2.83987027414053   15.57708175069303
C         1.93748607527163    2.20708800103360   16.42001233822274
C         3.01125307149668    3.74940375089288   19.68849965808652
C         3.47376671391229    2.86627111451290   20.60012735704879
C         3.49847114300691    3.48653346601178   21.96552307131237
C         2.99743709894444    4.87157469328164   21.71192989193084
C         2.79583787065764    5.89922730414157   22.61675667170926
C         2.29714669918617    7.09600619571729   22.11312952758231
C         2.00318584112832    7.24396860172526   20.76735001370140
C         2.19145180357720    6.21580561238332   19.85113116910212
C         2.70658004497150    5.01734024208191   20.34557028815208
C         4.71135108806059    4.41441318437488   14.99524264304328
C         5.53522338771522    3.32074280187718   14.30153060634714
C         3.87296585435167    5.17287398649563   13.95643484046098
C         5.68297817675086    5.40609911981543   15.64058777587906
C         0.96656079592988    1.14678301549107   15.91694403892851
C         1.10343629081661    0.87707706150740   14.41421848964390
C         1.25861157298422   -0.16702739981028   16.65805460934301
C        -0.47603373253711    1.60492539788854   16.18021545956606
C         3.99438928779243    1.49348979612299   20.33883004209975
C         3.09937066544744    5.71568109455091   24.07161682241670
C         1.83738715737109    6.41397495699149   18.40813519617454
H        -2.72592002522444    2.71749504415251   18.59061083842561
H        -2.91736994929725    1.77921771725629   21.08502586056082
H        -1.09484886692788    3.04081004905901   22.59040176991636
H         0.22499430324641    4.76093856764915   21.02851979081345
H        -0.78692130458102    4.57399883685756   18.54497046165652
H         4.54268863169009    4.74825673972959   17.77297417969053
H         2.81416123237546    2.59461631532118   14.52992483495209
H         2.12759393025635    7.92497799430204   22.78520568830676
H         1.60636967022809    8.18742060700391   20.41923420471988
H         6.23073893387855    3.76805865278237   13.59471645617823
H         4.89927697439338    2.62742087937932   13.75865445676814
H         6.10488894588656    2.75708914207974   15.03709489203055
H         3.26786544565373    5.93374415291882   14.44496250374551
H         3.20855314556870    4.50369787365376   13.41722215706409
H         4.52386316983364    5.66075384488417   13.23418094442437
H         6.32146796936670    4.91091745466332   16.36808549099887
H         5.14870341344424    6.21738845096357   16.12931724914839
H         6.32125008427999    5.83971873634008   14.87347823078175
H         0.87214087256519    1.76486091595074   13.82986292245932
H         0.40081639530217    0.09696719049237   14.12964295164588
H         2.10349076742891    0.53120181373626   14.16406934619735
H         2.26081366816488   -0.51633669813305   16.41436519394697
H         0.54238937536741   -0.92993545066682   16.36137927307572
H         1.18905573582893   -0.04123714542137   17.74044578449959
H        -0.66900973302859    1.70055678337404   17.25206589369525
H        -1.17399037688169    0.87532382164860   15.77474474473202
H        -0.65760960387703    2.56502844409276   15.69795456268621
H         3.39171146650969    0.98349979864038   19.58405527439824
H         3.98302480966962    0.90349446280677   21.25217350139845
H         5.02205024484090    1.54492615205783   19.97156021419741
H         4.50194909501185    3.47724277562932   22.39749909615556
H         2.84298454575274    2.93821626732821   22.64779726739064
H         2.52748720355069    4.88074324465936   24.47530221493476
H         2.85483853861068    6.61226181658608   24.63541137757232
H         4.15628720999730    5.49191974023778   24.21415583710952
H         2.72903114911529    6.64376411375136   17.82458440513066
H         1.13913357372466    7.24153435435837   18.29971508674639
H         1.39419805703812    5.51288267356854   17.98820431706012

