70
CSD_code = IQAYUU | q = 0 | S = 0 | Stoichiometry = C30H36Cl2OTi | MND = 8
Ti       -5.00232901439516   -2.98058445478358    3.69146632601981
Cl       -4.37397216328172   -5.03992314682029    3.32390633766621
Cl       -4.32696830169556   -3.06002366206694    5.78125145479068
O        -3.82281393777042   -2.02317816164778    3.01498624036549
C        -7.14511732399770   -2.73585595073801    4.64922426476343
C        -6.81783560260595   -1.54344511959974    3.96299310083905
C        -6.68805927221670   -1.85258937312694    2.58887206329048
C        -6.91238553699741   -3.24050145125354    2.43459031708191
C        -7.19816653887651   -3.77998664906010    3.71058480393094
C        -3.30924383164997   -1.11362195409027    2.18562088554302
C        -3.46940532814790   -1.33954338507172    0.80501969839472
C        -3.06830186797078   -0.38122470134778   -0.10801114456903
C        -2.47405035750240    0.80388145328123    0.30722752087611
C        -2.26401741359498    0.97770316493795    1.66954819466179
C        -2.65363030496144    0.05010704473848    2.62817024190985
C        -4.03830383633340   -2.61489922121164    0.34740249242616
C        -3.49767780688903   -3.84076528379935    0.52367180795693
C        -4.34203639969257   -4.89688111699792   -0.15059972063671
C        -5.45489182266587   -4.08607564089122   -0.75108908181947
C        -6.54792536038713   -4.48150107141290   -1.49098651092329
C        -7.43197358091954   -3.51073693894406   -1.94623960621315
C        -7.22028970647494   -2.16914552965148   -1.66717118071836
C        -6.12641202178260   -1.76234573165054   -0.91970967311950
C        -5.24729957349919   -2.72921350379689   -0.45865635127061
C        -2.06225243441059    1.83613176187374   -0.73097533102511
C        -1.44948576117650    3.09422398434437   -0.10997348133110
C        -1.02201899926954    1.20934712715193   -1.66997048388361
C        -3.30165557809827    2.25512427729703   -1.53451748782941
C        -2.38317388065152    0.26322034140003    4.11267919829601
C        -3.72197538972494    0.40045475442536    4.85285310175945
C        -1.59528067510096   -0.93882098387579    4.65634889287902
C        -1.55822972184959    1.52508994892911    4.39019120891363
C        -2.19260117232541   -4.16512326625646    1.16686360313473
C        -3.56702276293614   -5.70013232546770   -1.19758141111937
H        -7.39535831997062   -2.80929201648559    5.70021839422524
H        -6.81737773788460   -0.54902844958574    4.39256183974311
H        -6.56379580456824   -1.13631841676568    1.78629324374896
H        -6.98731731308628   -3.76877444480750    1.49286249521926
H        -7.50304886353646   -4.80027851707045    3.90973893136909
H        -3.21802252137450   -0.59127701540159   -1.15608044475089
H        -1.77687082668511    1.87464337558195    2.00337934134017
H        -4.72928378531470   -5.58711528572126    0.60866909421459
H        -6.72064069921716   -5.52419362225429   -1.71510163070927
H        -8.29337431623860   -3.80438759243143   -2.52776785971726
H        -7.91860533970042   -1.43242965967600   -2.03702152248326
H        -5.95985130779825   -0.71566800992964   -0.70612951767223
H        -2.15234698496232    3.58255578279434    0.56091798311919
H        -1.19469314119989    3.79863336541455   -0.89913072911773
H        -0.53802032718948    2.85948644379547    0.43447290283983
H        -0.15102634044855    0.88693369625170   -1.10349460700597
H        -0.70133938914317    1.93668056643784   -2.41266323475922
H        -1.42804351115555    0.34680529248279   -2.19062905689037
H        -3.74389209849649    1.40842971950075   -2.05176956141137
H        -3.03142769703507    3.00319031713193   -2.27665798738199
H        -4.05191620100052    2.68221891621654   -0.87225422995280
H        -4.29935008161805   -0.52531304483635    4.78800159424986
H        -4.30437102332132    1.21592964902246    4.42515782459760
H        -3.54311474863718    0.61497271967054    5.90430504135909
H        -2.14891644647006   -1.87226327124309    4.53539108191553
H        -1.39784758872810   -0.80290832616914    5.71727904654555
H        -0.64368705682564   -1.02811315878257    4.13451244928084
H        -1.36102395940875    1.59160660990543    5.45784184139392
H        -2.09520771198138    2.42340691694310    4.09470478271489
H        -0.60137587170588    1.49162478484704    3.87476913845888
H        -1.38283427610232   -4.04392174113952    0.44388311877705
H        -2.18661834147845   -5.19271526918151    1.52205855515578
H        -1.99482010631049   -3.50196220382678    2.01099849043473
H        -4.22446772070511   -6.41667841376732   -1.68332949817649
H        -2.74774516694626   -6.24113960756521   -0.73223497038123
H        -3.16246409385777   -5.03220532437492   -1.95514263146421

