37
CSD_code = IQAZUV | q = 0 | S = 0 | Stoichiometry = C16H13ClN4OPRh | MND = 4
Rh        0.75688750835055    2.22633768083973    4.96103531845781
P         0.35654234773233    3.03554121877794    2.92354822842009
Cl        1.07183499936838    1.12693690537950    6.86850968452870
C         2.98260728619508   -1.29916542210763    3.58580562563782
H         3.46210176770737   -2.14827903940950    4.04594067707997
N         0.77945014007641    4.46269385645526    2.10359595544199
N        -1.24406460272058    2.89123048152595    2.38354331269935
O        -0.51077590115907    4.42897260110327    6.51257266805915
N         1.18645312803919    1.89427224769216    1.93539367365728
C         2.99819191377620   -1.15212348021421    2.21061243516354
H         3.48259072888753   -1.87168597297544    1.56884761397749
C        -2.18911820511356    2.23369256959459    3.14150477435033
H        -1.93138443531322    1.87941019227690    4.13032158513389
N         1.73282850916513    0.71602161115256    3.94308113789611
C         2.11599984637614    0.53664862648930    0.40115711739969
H         2.43421502274744    0.12831971051881   -0.53734373678614
C         0.05047417496265    5.63066076357584    2.16364318575628
H        -0.96847462613070    5.62440787449785    2.50077703295963
C        -0.03588463625670    3.58067461916217    5.91038632105532
C         1.75508934898294    0.85172647652304    2.61481960273068
C        -1.82205870937640    3.22694891101523    1.17961005860162
H        -1.27082022556205    3.75400369800573    0.42538498140882
C        -3.34613070453795    2.16409709035055    2.43285600639229
H        -4.26677698928237    1.71832236495103    2.75247939794476
C         2.35416550475521   -0.36725781474625    4.41052756776039
H         2.34175197714913   -0.49301885758762    5.48510637319056
C         2.35804715180141   -0.02921711102846    1.69135870382919
C        -3.11209189956080    2.79715442402757    1.18562625822836
H        -3.82460768504471    2.91505269443523    0.39300091394731
C         1.41106119083600    1.68280710228382    0.58775143028029
H         1.04669204659248    2.38473857853804   -0.13772970889386
C         2.05022755946387    4.78155901744913    1.67788135225174
H         2.80521860460348    4.02459152444033    1.58088477558554
C         0.82735320470670    6.65391573133424    1.71883951757499
H         0.53331745587793    7.67959987770204    1.61715718084233
C         2.09988438716528    6.11327805531483    1.40831664914005
H         2.94240281474060    6.65503119265638    1.02659632829877

