40
CSD_code = IQAZEF | q = 0 | S = 0 | Stoichiometry = C19H15Cl2N2PPd | MND = 4
Pd        1.44107435000573    1.32343795688105    0.87438804480662
P         2.14014233425983    2.47448997373040   -0.92827380685531
Cl        0.78904993749025    0.43175791604223    2.82466883788095
Cl        3.46639709696302    0.39449644901072    1.01205428458270
N         0.66780567083120    3.32719657196505   -1.25755382576923
N        -0.38884472192620    2.23336359434701    0.59693378787963
C         3.20771102521376    3.84187697862559   -0.36954586526994
C         3.87347688343117    4.69863649505696   -1.23955402620127
H         3.81448683920162    4.53887847291824   -2.30733244430575
C         4.62265065030198    5.74439953891248   -0.73059686182812
H         5.14419469459727    6.40823002230461   -1.40409222972591
C         4.70863310630372    5.93795784992621    0.63896130477948
H         5.30006506933010    6.75221884712591    1.02998185000877
C         4.04408487177550    5.08697376177614    1.50849681937272
H         4.11803024224116    5.23638487905154    2.57488525011914
C         3.29197060736700    4.04015433059407    1.00750349464489
H         2.77598291367064    3.34773635425306    1.68701915218061
C         2.77766776530750    2.04176989367607   -2.56291856738311
C         4.13160210447693    1.71632491573195   -2.63478930295379
H         4.73771669206875    1.78474503247884   -1.74112104710987
C         4.67485833149878    1.29871466690870   -3.83446425912402
H         5.72348033529364    1.04937815170829   -3.89289592164589
C         3.87127638175489    1.19308353935925   -4.95986559312273
H         4.29675442945775    0.86882511952228   -5.89766010200694
C         2.51945600911620    1.48672145058854   -4.88132476578463
H         1.89248035747283    1.38676890994305   -5.75496877803659
C         1.96471840414073    1.89892072769560   -3.68259123298133
H         0.90560371162941    2.10736340620707   -3.61764757293801
C         0.26920470769483    4.29322149976404   -2.16094344906538
H         0.95673934715719    4.65122983289159   -2.90330347629037
C        -1.02313348881193    4.65213810188756   -1.93795158559725
H        -1.59129291488002    5.37274877400612   -2.49170154378687
C        -1.48734267331910    3.88972188155253   -0.82331005018955
C        -2.66556584487976    3.76547145770855   -0.08844685829095
H        -3.54213346729014    4.34525883792533   -0.33313240686463
C        -2.66097062921147    2.87145707788416    0.96698310863366
H        -3.54551843588530    2.73652432959110    1.56836605329971
C        -1.52150978560136    2.13160485434689    1.28492391266108
H        -1.50408966972943    1.44294803105832    2.12044314465164
C        -0.39451323851764    3.08586951504250   -0.42832347238921

