41
CSD_code = IQAZOP | q = 0 | S = 0 | Stoichiometry = C20H15ClN2OPRh | MND = 4
Rh        1.77362516486247   11.89937062571107    4.60252373457984
P         3.14386100318565   11.01640348672503    6.14235692206938
Cl        0.25976187292867   12.93301793077662    3.32285097398344
N         2.18114444122936   13.68857126864884    5.54251981957377
N         3.61081675943579   12.44341230156539    6.99747268679875
O         1.28536509354252    9.35232793628995    3.14305799923029
C         4.39851971239860   12.75003457105830    8.08741000361002
H         4.94972712928769   11.97847755197842    8.59047675362981
C         4.34151239750105   14.08263632621254    8.35320356903770
H         4.85770642542407   14.60072164075791    9.13700666683480
C         3.46318177912349   14.66882742535320    7.39152212875695
C         3.02777371390184   13.60317091475535    6.57264549936661
C         3.00065768758728    9.43091159606847    8.50273880447563
H         4.08117204509391    9.38814325379961    8.49556681678123
C         2.32190499795041   10.09269223342712    7.48574531995183
C         0.93124747986476   10.13888788268173    7.49290497257005
H         0.42171152640758   10.66299939146215    6.68232676849523
C         0.22105963946684    9.52162537238645    8.50582922420400
H        -0.85809681996503    9.55355483822688    8.50808489902122
C         0.90024166355242    8.85945274350034    9.51649344664592
H         0.34895444927580    8.37395340571731   10.30796403710493
C         2.28566608550586    8.81569015443458    9.51462573858527
H         2.81055449478666    8.29877960202075   10.30460276488865
C         4.72440406495622   10.14030544186592    5.96377382842821
C         5.93714082478557   10.81299686909842    5.86012481485552
H         5.96869648784550   11.88963099117383    5.95650410790349
C         7.10228701892194   10.10152053770822    5.63544906306934
H         8.04510887855414   10.62393215778817    5.56655849771858
C         7.06058462259390    8.72441521609561    5.49116916631083
H         7.97211956860569    8.17348366080926    5.31414289997628
C         5.84907058408072    8.05378015822274    5.56222894732224
H         5.81582299480898    6.98197052083091    5.43563207652200
C         4.68291872678392    8.75855958635576    5.79089554823371
H         3.72958455823548    8.24845496422541    5.84125542349248
C         1.45962219837201   10.33284342932386    3.71111437186975
C         1.73040301577242   14.91534064452461    5.28243702132884
H         1.03944706913961   15.00050104673673    4.45412072752342
C         2.10255822721643   16.03642329804936    6.02386723308729
H         1.69094732932539   16.99353211749833    5.74547418218668
C         2.97382348691303   15.93854972145481    7.09332303980719
H         3.26159160074857   16.80379718467455    7.67069950017386

