72
CSD_code = IQECAI | q = 0 | S = 0 | Stoichiometry = C31H27N3NiO6P2S2 | MND = 6
Ni        2.64527849675157    0.78768008116672   14.67603816135904
S         2.56162061326101    2.99481221893118   16.00890660261665
S         4.12479551027989    2.42572367469158   12.95095809000183
P         1.41587217453907    2.06453209849117   17.30717858502078
P         2.49916801572579    2.86458961457399   11.96268002879052
N         0.84675671068288    1.10583667553227   14.25678816477905
N         4.38784528506891    0.21579107961302   16.42821306126431
N         2.45129861225625   -1.72727107864833   13.80716291810989
O         3.29984653512593    0.26440472536402   17.01781549993549
O         4.35971011617416    0.46393046410215   15.18609984624227
O         5.42141729731788   -0.03649553864598   16.97243748336023
O         2.79464119707913   -0.80349180689412   13.04027270642944
O         2.15374720328429   -1.39260825522861   14.97579023377018
O         2.36833951588621   -2.86421029956790   13.43560713915527
C        -0.01987571988494    1.00031048934595   15.28276240789349
C        -1.37429399593045    1.27043220018211   15.12867471212216
H        -2.02940942831747    1.19703458886112   15.98204448760559
C        -1.86686334484822    1.60807211974370   13.88278655129472
H        -2.91579340197514    1.81423610542273   13.73888353868861
C        -0.98251472478789    1.65037609245628   12.82439646574015
H        -1.33290263437447    1.86507318272550   11.82782165615039
C         0.37134668073687    1.39786498906023   13.03350863871199
C         0.48665028972813    0.60501993327246   16.62549601716992
H         1.17114211294226   -0.24716520338261   16.55722245475813
H        -0.34367655186572    0.37944012688718   17.29695835500338
C         1.29081699313821    1.44060683749271   11.86693479726962
H         0.72813147414070    1.50217657359746   10.93394023416759
H         1.93222816000540    0.54952265041477   11.85905468913239
C         2.10982468034407    1.66071359438783   18.93614889150341
C         1.81299238713733    0.49162109653391   19.62143972769192
H         1.16185212406457   -0.24863601214872   19.18314431119581
C         2.38751131833630    0.27218821273315   20.86033383210100
H         2.17037423021649   -0.64005621633475   21.39574021031526
C         3.24948841808154    1.20884494193234   21.40824989913755
H         3.70131776519893    1.02453802753371   22.37134089266047
C         3.54478609674946    2.37306777054991   20.71817185160193
H         4.22549899697046    3.09726815281019   21.13960088425134
C         2.97544604944704    2.60106453430520   19.47890658765265
H         3.20852459999348    3.49503700139521   18.91484568205959
C        -0.00645386440263    3.15346563829279   17.68830619538169
C        -0.45788186397748    4.03941954888255   16.71860849081095
H         0.07906671351523    4.12453473110281   15.78338758926916
C        -1.57318332698704    4.82069485298503   16.95901791045869
H        -1.91994419591475    5.50642723481750   16.20030128826818
C        -2.23836998181136    4.72304504134680   18.17018148858822
H        -3.10725883478322    5.33511112565770   18.36057099709061
C        -1.78619154512004    3.84430174490995   19.14176048902191
H        -2.30092264477998    3.77264307723152   20.08833900892377
C        -0.67458786891881    3.05656916910577   18.90241352947709
H        -0.31778157964441    2.37045740440200   19.65818017852672
C         2.83216445684501    3.20759621883393   10.20691529882084
C         3.31147147292052    2.15807874793636    9.43068404914809
H         3.43167378655402    1.17981687672811    9.87521379576563
C         3.64362797861026    2.38015710734628    8.10784257311557
H         4.01233345490238    1.56726860599361    7.50120196762618
C         3.51118286685592    3.64892857926908    7.56434453470983
H         3.77419320737372    3.82244025084184    6.53163696962028
C         3.05377308133054    4.69731094898180    8.34505013247248
H         2.96408851174641    5.68738088698273    7.92305084838496
C         2.71608903440387    4.48179083416204    9.67004747556510
H         2.36407660595925    5.29669479448056   10.28655625908515
C         1.51790726012424    4.27278507398504   12.58726113473247
C         0.25537013378626    4.55337176304407   12.07540864417356
H        -0.13736599835139    3.96871815458876   11.25616708383488
C        -0.47968402061157    5.59788627349380   12.60401525975377
H        -1.46224298106430    5.81620058370928   12.21214446048051
C         0.04450251737731    6.36517453919473   13.63376688917552
H        -0.53586894995074    7.17705522397168   14.04686293946266
C         1.31293208418700    6.10189277057172   14.12399184928660
H         1.72484405515527    6.70514881682678   14.91827328887456
C         2.05364016396325    5.05678739208580   13.59918842407833
H         3.04236041206035    4.82937054498192   13.97175265931603

