43
CSD_code = IQEFOA | q = 0 | S = 0 | Stoichiometry = C18H18N2NiO4 | MND = 4
C         8.50133762933154    5.74248860121578    5.21079653195338
H         8.04584123329419    6.48949094836945    5.85888667668070
H         9.58875349277439    5.87952104732581    5.20947420926583
H         8.26526748775721    4.74190307279319    5.59074895764521
C         8.33911127111563    5.14801794755232    2.91866425567386
C         9.24449715263962    4.12326837791237    3.01363100685409
H         9.72152634065435    3.89716447582250    3.95472812465030
C         9.57636650971137    3.34203720867781    1.89323178432598
H        10.29489965355942    2.54493523055242    2.00674035311852
C         8.99721960373308    3.59127649854663    0.68638857277809
H         9.24607858144673    2.99493544183532   -0.17946986051963
C         8.05612067132214    4.63679126534302    0.54228777226737
C         7.70080942844043    5.45014683848895    1.65949494388025
C         7.47103085850334    4.89187213984195   -0.71784095594210
H         7.81475605098804    4.26844990738216   -1.54626313943135
C         6.14530825000026    5.98683541836375   -2.34500757149968
H         6.15249775043161    5.03866415810166   -2.89670711017994
H         6.83857770634698    6.68110091106489   -2.83779452090327
C         4.74476053863428    6.60070516476317   -2.31320714847819
H         4.52298595248766    7.13623050939376   -3.24461039081338
H         3.99896793745956    5.80550150184155   -2.18331181343443
C         3.82365374163559    8.46756003053052   -1.18561638844873
H         3.23387152558701    8.61293485554637   -2.09343073710745
C         3.57462841849474    9.36834029745424   -0.12638184118575
C         2.64104693881931   10.41691983211423   -0.29481803815492
H         2.13800995976076   10.51517419799795   -1.24589359175529
C         2.38386180030590   11.28535554066234    0.72187940612480
H         1.67297700934328   12.08746398984831    0.59640991083665
C         3.04368543676693   11.14799878816903    1.95535182761767
H         2.81584172001812   11.85390331580416    2.73901377940457
C         3.95363716593683   10.14419123830600    2.16329937964805
C         4.26027965085832    9.20142339137061    1.11380409687061
C         4.42737314694946   10.79356537602755    4.39654439079507
H         5.07814957030455   10.43685062938759    5.19327753369680
H         3.38662209914792   10.76352631306341    4.73897762154674
H         4.69433941898598   11.82690425709584    4.14702502695138
N         6.57823994256101    5.79990509671302   -0.96654561619761
N         4.67784338687140    7.49127449280499   -1.16222045332984
Ni        5.81005833774867    6.99860048138194    0.21564790289550
O         7.95026939277107    5.95724626125247    3.93942549426625
O         6.86893957270923    6.41640039118967    1.60957267487853
O         5.11080045260655    8.27914032256215    1.34643401142310
O         4.64245721118679    9.92728423552961    3.31508293133439

