96
CSD_code = IQELIA | q = 0 | S = 0 | Stoichiometry = C38H41AuF6NO6PS2 | MND = 2
Au        2.73810953220145    8.58732710864613   13.31696310848191
P         3.50691275779977    6.54555424807943   13.75787513719284
C         5.18605052127515    6.23175533544738   13.04121736915284
H         5.45187523007998    5.17361836687708   13.16430833845158
C         6.15008609082908    7.11839128974644   13.83574119358312
H         5.79652233750662    8.15173753750165   13.76898222242095
H         6.14608553393711    6.83696845661836   14.89068435025816
C         7.56906239456552    7.02751501810498   13.28520444146677
H         7.93643634572615    6.00356644801602   13.39129186051322
H         8.22567900475004    7.67766437734861   13.86543986691476
C         7.59496118263262    7.42923590599028   11.81527919658179
H         7.26787589961018    8.46577249190041   11.71638157484390
H         8.61047563755631    7.35375814961345   11.42250300987397
C         6.65972403797601    6.52796839707671   11.01874972674154
H         7.01067597132866    5.49449064785900   11.08010360617590
H         6.66263141525083    6.82049040242595    9.96764669799038
C         5.23478305950391    6.61573317673914   11.56205769014961
H         4.86577421071894    7.64008344102706   11.45374234488779
H         4.59088672367203    5.96291020432567   10.97214000441817
C         2.31066661800702    5.21822100457712   13.27043066545212
H         2.74215596399665    4.23332741804176   13.49298172232516
C         1.06647499588676    5.45365393809577   14.13319327328248
H         1.31732331841489    5.35593608370313   15.19140057054370
H         0.71850850268328    6.47861221676633   13.96852028644278
C        -0.04756356693541    4.47601558726865   13.77606611489511
H        -0.92002224458912    4.67695458520554   14.39937806264711
H         0.28200285877097    3.45427251037630   13.98201834410039
C        -0.41283686945261    4.60990267837120   12.30260658379549
H        -1.20866764070384    3.90836282003225   12.04579703854373
H        -0.77630714943632    5.62125508139098   12.11202985172717
C         0.81465037928972    4.34028762911980   11.44111381597428
H         0.56317258757479    4.44629571784589   10.38442286184277
H         1.15202318281034    3.31316452897261   11.60325142505366
C         1.94628017741087    5.30573893870809   11.78934019908295
H         1.63746421970489    6.33148099065135   11.56487468338133
H         2.81194573932400    5.06710503127990   11.16953953363866
C         3.46950127646859    7.05006469182154   16.49565582992263
C         2.94814718493741    8.42133660050601   16.40758672232014
C         1.56941980058687    8.64210720917476   16.52146426095918
C         1.08100750865637    9.94246359787669   16.52165414272498
H         0.02513428980624   10.14021758971325   16.58446663602940
C         1.96352062880154   11.00287995935170   16.42884213538184
H         1.57457188497773   12.00839460778175   16.42878748299329
C         3.32770740684916   10.80195449315086   16.33197033479711
H         3.98506953481949   11.65014484035246   16.25476262599736
C         3.82965451716359    9.50589498006139   16.31249920865670
O         0.80714765187227    7.51940953069571   16.62580767173633
C        -0.59285284399580    7.65977320457507   16.51002061987943
H        -0.98397352213055    6.64336482146565   16.50096925557483
H        -0.85670355854574    8.17149975116805   15.58072250179214
H        -1.01220033755966    8.19959602882080   17.36454957847268
O         5.14683178080102    9.17964273934835   16.20403443701701
C         6.06472745485757   10.22252300462655   15.94488345110326
H         7.01814683576274    9.72848693329820   15.76330048762313
H         6.16243523463974   10.88700133604540   16.80879804299538
H         5.76658736573049   10.80133943680388   15.06666840622159
C         3.74563260650001    6.19999143506220   15.50032780750519
C         4.25780170036214    4.84035484230163   15.96210668637984
H         4.48250339587566    4.15563787836722   15.14374347267003
C         5.45456523845620    5.13875826036356   16.83034794312217
C         6.73012482119559    4.63855369361434   16.66884866343532
H         6.95270794353033    3.94864387503905   15.86752645646222
C         7.72480901163424    5.03784603219006   17.55060125764732
H         8.72768899512913    4.65553527673788   17.43283912387835
C         7.43994264877313    5.92322082268074   18.57506141248349
H         8.22272780560707    6.22850526881549   19.25313355740579
C         6.15589524213331    6.42445991199055   18.73916220150363
H         5.93488126262245    7.11639488163774   19.53796319603737
C         5.16702051201573    6.02761450014522   17.86389900177270
C         3.72598611738406    6.47309044865653   17.87899533430862
H         3.49565765711917    7.17566946625317   18.67771730768967
C         2.90652920193173    5.20726329966525   17.93511542922126
C         1.94080784198137    4.89888767771514   18.86946108427388
H         1.71176904586717    5.58824998965502   19.66808768475995
C         1.26424010987956    3.69138606085091   18.76342445085356
H         0.50352560299545    3.44043542849434   19.48737586890180
C         1.55503304177275    2.80879001553962   17.73833535458368
H         1.02118394586633    1.87302930981341   17.66608825394793
C         2.52748961981839    3.11863548560920   16.79764980908972
H         2.75398438587172    2.42954209278010   15.99662976840395
C         3.19718536373962    4.32006996034625   16.90087074142289
N         2.03330288913600   10.50492549073843   12.87278917869012
S         0.50373947371588   10.64272921414095   13.29606418961417
O         0.03432684726904    9.34329725934730   13.67633430907346
O         0.18740709493550   11.75083187294536   14.11926486806943
C        -0.31341142696314   10.92907816380573   11.62411401853322
F         0.02183983827267    9.92267256299699   10.81198148862138
F         0.06667040958579   12.06414530133523   11.05285483746994
F        -1.64080339355847   10.93906771277302   11.72807877591532
S         3.01092442796610   11.76511912737901   12.77516201426774
O         4.17219705560401   11.59733464428912   13.58861078682253
O         2.33390974947155   13.00819354906045   12.75231692316008
C         3.65649159875105   11.45160840303531   11.02826106499493
F         4.38421736113327   10.32775018681165   11.01333186840067
F         4.43142929063607   12.43665447546211   10.58666610336186
F         2.65700661180567   11.28820300116006   10.16523710020734

