39
CSD_code = IQETAB | q = 0 | S = 0 | Stoichiometry = C20H10F4N2NiO2 | MND = 4
Ni        8.19863011198077   -1.33630533131636    8.95100916519680
F        11.51210345110375   -3.18342968095284    3.73606877115015
F        13.08875120238050   -4.57712190014374    5.47182809024316
F         2.54147405524627    2.30749636524359   10.06360516436291
F         3.11510832154049    2.31409377757861    7.39685694569012
O         8.87808142507721   -1.63147075825836    7.26126172971473
O         6.89321415148555   -0.32448910955788    8.12919817690529
N         9.51708533245344   -2.36216852163676    9.76748282040759
N         7.49889804279124   -1.03888096907442   10.64786681015072
C         5.89155092567246    0.28625024915756    8.61822898987699
C         9.37817547188619   -2.38018298988642   11.16167229648607
C         9.87357158084062   -2.32416176069534    6.88087234010088
C        10.47658104619384   -3.02416473367669    9.17185523942328
H        11.16671238557669   -3.60828577019433    9.77517918393860
C         6.41382486806606   -0.36832969536915   10.94212135364815
H         6.10126224829595   -0.30164705423640   11.98101759830061
C         8.26858310106389   -1.65069041284380   11.64620938143588
C        11.24011914922157   -3.13351750398742    5.04696406763675
C        10.18536341090675   -2.39282971360204    5.49407707946367
H         9.56698536859836   -1.84719540358898    4.80000328624950
C         5.58226172182593    0.29952637258714   10.02171810107739
C        11.79773113897907   -3.81395518259100    7.28172839371748
H        12.43044845282890   -4.36801183549836    7.95782044225343
C        10.71701367002158   -3.05782581914504    7.78415011237370
C         3.92477846379921    1.65408462602191    8.23578316493498
C        12.05579976601548   -3.85344415845834    5.94341443762112
C         4.44154120040375    0.98949824442833   10.48512423435359
H         4.20475530463356    0.99706099287691   11.53788879422909
C         5.01688659640109    0.99699957082207    7.74937474140669
H         5.23348181790373    1.00320216191343    6.69351075840709
C         8.88350806581184   -2.23643674757538   13.89708320745303
H         8.69683509657113   -2.17987255011398   14.95821879876110
C         8.03740867707768   -1.58661529386739   13.02016851708449
H         7.20797913982401   -1.02937259356855   13.42455115781549
C         9.97057050613807   -2.95381747598234   13.42173170415520
H        10.62942610586583   -3.45603123466907   14.11293459471003
C        10.22133962763977   -3.02615396654500   12.06563498471682
H        11.08112740525634   -3.58378762140995   11.73123307187369
C         3.62833159262153    1.65208342781574    9.61395229267392

