39
CSD_code = IQETOP | q = 0 | S = 0 | Stoichiometry = C20H14N2S2Zn | MND = 4
Zn        5.16116707618507   14.28218117612377    7.26181874831914
S         5.57095728267393   12.03494896408095    6.63620829051027
S         3.87644099299732   15.52675273577366    5.76396521854439
C         4.73795577226048   17.02351836609896    5.61481754745099
N         4.81645401628557   13.60632938300965    9.16820467333299
N         5.75259160419545   15.95526177595530    8.33470312669417
C         6.74591151792617   16.38293677057731   10.55237649723565
H         7.23026385231046   17.28665414033633   10.21503371129471
C         2.52449282004424    9.54241213847239    7.01461319180945
H         2.15108217764165    8.71868821837076    6.42487286057998
C         5.83379150135473   17.17208992823127    7.90896732198272
H         6.13242138739547   17.95699434281455    8.60871199350871
C         4.13809040352425   11.33274366204110    7.31573408374055
C         5.42928288406048   14.40232058317858   10.11238525013814
C         5.54154243799978   17.65305216423772    6.59721693903967
C         5.62097079275898   14.00770467396677   11.43674063232027
H         5.22947559515810   13.05863984322539   11.77053801488411
C         2.37746314523189   10.93786232551980    8.94319883536877
H         1.89347736284035   11.21551325527576    9.86949390019100
C         1.88157338136181    9.89937714747389    8.20180914566522
H         1.01008398471941    9.35644089638364    8.53397445671335
C         3.94839836262658   12.68975834256208    9.44469777070761
H         3.51350323365955   12.64265229963461   10.44759982861618
C         6.06268177361316   18.93305615911381    6.30172707959247
H         6.67219848463494   19.41708847153555    7.05248822715362
C         5.84977753525940   19.55678631763972    5.10147301339255
H         6.28358330756678   20.52492322131885    4.90380565719549
C         5.98951903885041   15.62078818515294    9.66434054581500
C         4.50263737087851   17.70317179963006    4.40900050132948
H         3.87355401481378   17.21274837619095    3.68215889997279
C         5.05274744795993   18.93064852611452    4.14204976471144
H         4.86481612562940   19.41355489511857    3.19496513762570
C         6.91719910357020   15.97825615079671   11.86240297553609
H         7.50914357056966   16.58053959703958   12.53448103273512
C         3.62993335326751   10.23919408248619    6.59766635293211
H         4.13644807363042    9.97039686767589    5.68338577045034
C         3.50401048074373   11.68691465420818    8.53645254087590
C         6.34761571919044   14.79545279837641   12.30714629333937
H         6.49014301460775   14.47594676425905   13.32817416869631

