60
CSD_code = IQETED | q = 0 | S = 0 | Stoichiometry = C30H24CoO4P | MND = 5
Co        0.25739675768701    2.59286268802829    9.89006798721642
P         0.37211802402404    4.11816145715155   11.56721290643738
O         2.74918720970582    3.81319938950866    8.84129433758130
O        -2.20849383554224    3.95481984669296    9.08954530661953
O         0.79039271558729    0.56870406323609   11.93954157486176
O         0.46793248004196    1.36837089918777    7.43687356803123
C         1.77270801670160    3.29564718456492    9.13384143920436
C        -1.27679424433619    3.34307970710063    9.36625636556970
C         0.56330929371758    1.30475313546131   11.08477061850252
C        -0.07650408572359    1.26235311463352    8.49898353883738
C        -1.03184534945681    0.09427348868596    8.76557229148877
H        -1.14196059241568   -0.44901279089256    7.82224224470874
H        -0.55040942129203   -0.56432853373531    9.49178200736072
C        -2.37184681232091    0.52889811516163    9.28711778784991
C        -2.68077052783664    0.36735484588911   10.63196066204948
H        -1.95928799599363   -0.09103396906011   11.29326021644000
C        -3.90215086060440    0.77560897943196   11.13708705840557
H        -4.12642883490838    0.63587253142343   12.18448261340921
C        -4.83166605733571    1.35627797520721   10.29387904827056
H        -5.78644681673514    1.68473732015329   10.67782535258167
C        -4.53617908998305    1.51003717736363    8.95127045955961
H        -5.26678459049395    1.95913690258645    8.29350777941729
C        -3.31632553503953    1.10201443653874    8.42867993239192
C        -3.03658178518705    1.26772407728744    6.96586417568597
H        -2.09602251951034    1.78970622348248    6.80050379283237
H        -3.83363876159174    1.83014494152693    6.48592974787878
H        -2.96480168172684    0.29384514988271    6.48041457889962
C        -0.38380571080606    3.60070019645922   13.13945604007226
C        -1.62521172093436    2.97189334594366   13.07161279639700
H        -2.08561300601623    2.80349954318376   12.10552340703174
C        -2.25675686966775    2.56141302620109   14.22961393486817
H        -3.22140472256648    2.07942960049102   14.17433591765526
C        -1.64973761057855    2.76288543962103   15.45953569159423
H        -2.13958778256509    2.43405254383133   16.36404429220694
C        -0.41233902641913    3.38069778209266   15.52853277331330
H         0.06270376472466    3.53519507444075   16.48626022615790
C         0.22309658455087    3.80318476855301   14.37365920254925
H         1.18815412433621    4.28652589145807   14.43175174103293
C        -0.45213637542825    5.70532410684797   11.23056139327300
C        -1.41909701759219    6.25493173338060   12.06332579845431
H        -1.70652947782212    5.74585191483943   12.97235108926549
C        -2.01492092411806    7.45759768253479   11.72331548832433
H        -2.76762048597389    7.88159579296710   12.37174616459732
C        -1.65249239768401    8.11388284633651   10.55956827493543
H        -2.12350715460315    9.04978265112412   10.29831893454331
C        -0.68950228224548    7.56663229357834    9.72532969798713
H        -0.40870232683753    8.07439139843832    8.81453130638971
C        -0.09543046840931    6.36472531481779   10.05555655681458
H         0.64866706123302    5.92374105311003    9.40401946573388
C         2.03718708046338    4.64877185568408   12.08337847661454
C         2.36470571236976    5.97971585788906   12.31998374682661
H         1.61787328368324    6.75193554808597   12.20126289344426
C         3.65062227961196    6.31373717780210   12.70744353064362
H         3.90159909796131    7.34900166085580   12.88640345741087
C         4.61227078449361    5.32966357799234   12.86431521440283
H         5.61481752387229    5.59705541748816   13.16318383122765
C         4.28879358631359    4.00198174787490   12.63274323558648
H         5.03695021674863    3.23246563695302   12.75225014338287
C         3.00862563062114    3.66272995996497   12.23916818246944
H         2.75432352985275    2.62889920265749   12.04564970269951

