67
CSD_code = IQETIH | q = 0 | S = 0 | Stoichiometry = C35H26CoO4P | MND = 5
Co        2.38888241998219   -0.11881112821983  -10.24597283039235
P         2.25403957137613   -1.70758283295464   -8.64237392646998
C         2.71203175720973    1.13649702284232   -8.95458261107769
O         3.00572599010270    1.75281953825806   -8.03686722933108
C         0.72389832908270   -0.49748972735183  -10.75413778061617
O        -0.36041267762005   -0.79939778533680  -10.98734436667532
C         3.91872298914434   -0.86605507397016  -10.80078081817211
O         4.90023648952239   -1.42754883987449  -11.01015541494271
C         2.29411732755972    1.15682968270225  -11.72651192153355
O         1.89440212046208    2.26812007809768  -11.53535713209764
C         2.69433133296453    0.70506849893204  -13.13626913733576
H         2.64633752950826    1.59111300011451  -13.77388776953784
H         3.71402856040665    0.31908660049435  -13.12704033535607
C         1.74399023297811   -0.35642390496878  -13.61702107547603
C         2.12766863845055   -1.69193245536922  -13.61759535756365
H         3.13616131057184   -1.95603858197238  -13.33253523978475
C         1.24067578870111   -2.68789718731981  -13.98580439212325
H         1.56148167897221   -3.71951796789833  -13.98843629283258
C        -0.05454937702213   -2.35899295026280  -14.34491608175378
H        -0.75674074097789   -3.13213887248002  -14.62031548831227
C        -0.44643205145779   -1.03301866358287  -14.35360605283581
H        -1.45375568004990   -0.76574476965798  -14.63931325111474
C         0.44174578981436   -0.02287392119571  -14.00242199439572
C        -0.02161597726042    1.38077112155730  -14.03978328677346
C        -0.99490488082512    1.81932990743001  -13.15061090109193
H        -1.39684925476643    1.13052761908116  -12.42193033757297
C        -1.43441066177137    3.12989627110041  -13.18633830944922
H        -2.18257068292583    3.46419825349954  -12.48241240981299
C        -0.91758113108018    4.01165662367343  -14.11946832917865
H        -1.25968829385112    5.03587204389253  -14.14545428212077
C         0.03746647416201    3.57654297154082  -15.02236306540613
H         0.43682522542491    4.25854398959675  -15.75929706939988
C         0.48433419651762    2.26874091123339  -14.98304210342272
H         1.21985351207220    1.92488591481986  -15.69797311175088
C         2.52957901832078   -3.42711528289539   -9.17601362943560
C         2.08786840924291   -3.78985089056506  -10.44445332847367
C         2.23845634940151   -5.09116996651613  -10.88680818829238
C         2.83589415963635   -6.03686879394473  -10.06996684470129
C         3.27714224758585   -5.67988670008308   -8.80596750663017
C         3.12317041029179   -4.38170897519068   -8.35404050620819
H         1.63417418966968   -3.04465314262147  -11.08551835444946
H         1.89162468710567   -5.36741992010342  -11.87135423554000
H         2.96038578410363   -7.05163614514054  -10.41767659484973
H         3.74264871097019   -6.41626384402465   -8.16716524422778
H         3.46701463053201   -4.10841098088807   -7.36576779936996
C         0.66781687776513   -1.83214623746270   -7.74989498992466
C         0.22531694001477   -3.03171153522799   -7.20169443304056
C        -0.96859904735528   -3.07162842922284   -6.50421781297756
C        -1.72503548232416   -1.92200183435190   -6.34555664199204
C        -1.28774019428016   -0.72573120346746   -6.89016117793504
C        -0.09779584915659   -0.68026784914121   -7.59289647440462
H         0.80864092508276   -3.93298839991546   -7.32425389501155
H        -1.30997929924811   -4.00608657870234   -6.08345610759573
H        -2.65690225367452   -1.95958336419785   -5.80124661143308
H        -1.87583446997158    0.17224268974215   -6.77153904066668
H         0.24144316420671    0.25105078935439   -8.02905174068718
C         3.44119092626237   -1.50297519557411   -7.27976868465575
C         3.05880676964431   -0.97257653745110   -6.05243805980758
C         4.00911748908616   -0.74495959212760   -5.07270665059067
C         5.34158470395421   -1.03502952319676   -5.31197390534672
C         5.72857112124183   -1.55240344333771   -6.53865092930048
C         4.78593523708272   -1.77921534825954   -7.52227314575736
H         2.01986366889325   -0.73939158447149   -5.86440613382931
H         3.70681756936657   -0.33504988667077   -4.12028489851465
H         6.08038416865393   -0.85327199114736   -4.54578117063989
H         6.76831429821201   -1.77338773165346   -6.73008867757510
H         5.08587828353514   -2.17783795799462   -8.48200688058941

