97
CSD_code = IQEVOR | q = 0 | S = 0 | Stoichiometry = C44H40N2O8PdS2 | MND = 4
Pd        0.00005288078594    0.00012880005297   -0.00002082872363
S        -1.25156409088906   -6.47282587122676    3.90423014302771
O        -1.51159320730845    1.10706907045541   -0.79173224589740
O         0.03249904106008   -5.56197581313092    3.44842015085587
O        -0.71750408722837   -7.60515403916287    4.58558433867243
O        -2.14806869223930   -5.63143408513839    4.63552767216755
N        -1.26450701314232   -0.55476599733489    1.44128788919217
C        -2.32704640856688    1.75779486035436   -0.04496058078528
C        -2.95018740377311    2.91687159984105   -0.58207090390846
H        -2.66730433170311    3.19847584457791   -1.58545215482530
C        -3.84902350382147    3.65452986044762    0.13667633199204
H        -4.28777430139060    4.53959218071408   -0.30106967644127
C        -4.21128336375375    3.27531953054896    1.43500399226185
H        -4.92552657390650    3.86253298359588    1.99089533852027
C        -3.65697296305114    2.15034060169066    1.98222248537873
H        -3.93514941669341    1.84014269339390    2.98015604282591
C        -2.70738668045752    1.37630194710747    1.28635526301131
C        -2.23058459804342    0.18104742317303    1.89105479418745
H        -2.78637875679047   -0.16800281797547    2.76555109412033
C        -0.97119404260128   -1.80231278508911    2.00139831716693
C        -0.90259325673683   -2.02849864799108    3.37461797360608
H        -1.07489699628735   -1.21551407750686    4.06419976645609
C        -0.56561214204927   -3.27967763657954    3.85587637854997
H        -0.50570687774499   -3.47080361526492    4.91484200376551
C        -0.30182586374953   -4.31574181207337    2.97046430264755
C        -0.39099418525965   -4.10715538332026    1.59619494554233
H        -0.18910040866296   -4.92371137763239    0.91999063165204
C        -0.71576745087578   -2.85582487195236    1.11602888816731
H        -0.78422393697993   -2.66674533965802    0.04180984744278
C        -1.89240133295223   -6.92712638752319    2.29205758816994
C        -3.07571660622903   -6.38740537495671    1.79775678744204
C        -3.49278230398850   -6.78079089266137    0.52983034380574
H        -4.41212396552991   -6.37380630684039    0.13486235143172
C        -2.76243740576988   -7.67397999209265   -0.23858394521213
C        -1.57175994989451   -8.16855033849351    0.27550246416144
H        -0.98200691262299   -8.85119561138691   -0.31884677598825
C        -1.11639304072640   -7.80413900113561    1.53591225912444
C        -3.90345561098785   -5.39907040231607    2.55341232684044
H        -4.79352410790206   -5.14163740020634    1.98373481661121
H        -3.33219513981056   -4.49313335630997    2.74801731320089
H        -4.19735081740198   -5.79831546871205    3.52060564623780
C        -3.24494292826052   -8.10667772702290   -1.58785928487563
H        -2.41593381989188   -8.18732914642306   -2.28718564705076
H        -3.97719281347636   -7.40801426497063   -1.98356100419744
H        -3.71500994335381   -9.08722689997436   -1.51316697061355
C         0.18604411416967   -8.33881687398159    2.03224254363411
H         0.82831714150076   -7.52721380375543    2.36672712265726
H         0.68977048661119   -8.90145295296078    1.24954557545707
H         0.02446088546315   -8.98393665974382    2.89304785387717
S         1.25177128069141    6.47297489512758   -3.90415871218088
O         1.51160670120906   -1.10704826127947    0.79150121695306
O        -0.03235575689136    5.56212570349979   -3.44853463393245
O         0.71780782463860    7.60536282399616   -4.58548979092892
O         2.14832274623840    5.63160795301627   -4.63543186711510
N         1.26448651734619    0.55482248796004   -1.44153201808637
C         2.32699962318956   -1.75779736572541    0.04468874049193
C         2.95022902729958   -2.91680879384162    0.58183191919330
H         2.66732351135756   -3.19843967938402    1.58519897997641
C         3.84908640723957   -3.65444141564712   -0.13691002619440
H         4.28777315502387   -4.53955331507507    0.30079614163222
C         4.21130173169456   -3.27524942007255   -1.43525515911104
H         4.92553929369818   -3.86246138917308   -1.99115577806413
C         3.65697775986164   -2.15027293646056   -1.98246737216205
H         3.93516845320926   -1.84005165436126   -2.98038957011270
C         2.70736717020030   -1.37625881026357   -1.28660440633046
C         2.23057928506404   -0.18098486132106   -1.89128437700301
H         2.78640190852384    0.16808663502538   -2.76575549656899
C         0.97120549277669    1.80239085918627   -2.00161225718603
C         0.90266327577390    2.02862844842140   -3.37482578351464
H         1.07497000535337    1.21566292223379   -4.06442902654158
C         0.56572012064524    3.27983029053420   -3.85604984346938
H         0.50584323218266    3.47099313015340   -4.91500997658875
C         0.30191595800402    4.31586518234014   -2.97060894390115
C         0.39102048646665    4.10722608795898   -1.59634385467925
H         0.18911952734732    4.92375988911875   -0.92011480739175
C         0.71575805168423    2.85587311622125   -1.11621268582938
H         0.78420715854644    2.66676459662292   -0.04199822784525
C         1.89246619212998    6.92714083191695   -2.29189316674953
C         3.07571338966020    6.38734365844074   -1.79751207315970
C         3.49264560684020    6.78059504642383   -0.52950039529755
H         4.41193021251007    6.37354637178167   -0.13446573824615
C         2.76223610093939    7.67372672093901    0.23891986532345
C         1.57163580065738    8.16838706666662   -0.27525854331298
H         0.98183853958323    8.85099834857716    0.31908588718330
C         1.11640048605622    7.80410889340274   -1.53575469553926
C         3.90351278392666    5.39906104455883   -2.55317015315360
H         4.79351626327510    5.14155901135674   -1.98342231020190
H         3.33225557662515    4.49315271809123   -2.74791976858579
H         4.19751766503054    5.79838970787775   -3.52029562226095
C         3.24459844878801    8.10627032065828    1.58829614216679
H         2.41549933964265    8.18696266095412    2.28750851087316
H         3.97671292418489    7.40749613646117    1.98404773758127
H         3.71478688191086    9.08677104611953    1.51374320567960
C        -0.18596608742982    8.33887033904780   -2.03218009330421
H        -0.82823023035718    7.52731492867189   -2.36679837478563
H        -0.68975675210428    8.90145921234656   -1.24949031427222
H        -0.02427038725573    8.98405445352739   -2.89291604880055

