53
CSD_code = IQEYAE | q = 0 | S = 0 | Stoichiometry = C22H30Zr | MND = 14
Zr        4.36055447356643    2.17319460185680    0.54012914090012
C         6.21740910891407    1.65835769084291   -0.90362702715931
H         6.46233451604143    0.64491676006142   -1.24132899720173
H         6.54024551120585    2.38684811503873   -1.65966757966931
C         6.65260690428382    1.94598445940785    0.41246381496668
C         6.41042049485782    2.25941045969596    1.59315474640924
C         5.49784254611605    2.59044161893955    2.62303832102668
H         5.43943101567240    1.85280064818678    3.43478396187230
H         5.64628891395282    3.59091594353542    3.04494382906759
C         3.09778205524662    0.15275723878344   -0.33323030504774
C         2.30434061561226    0.78705234226056    0.65413862903585
H         1.28971020052928    1.13672983959832    0.51667213736008
C         2.95962640966273    0.66870416237669    1.90562754971618
H         2.53053525641886    0.91352209886351    2.87150570389437
C         4.14758710385235   -0.06884499076600    1.69672163358366
H         4.81965284786835   -0.42912463791347    2.46547686599881
C         4.23576569813751   -0.37617872442266    0.32991876685042
H         4.98256451714587   -1.02465655867000   -0.10770697883362
C         2.70022512464504   -0.17827605508161   -1.76085589913462
C         2.32702879984522   -1.66844800044181   -1.82305927293148
H         1.49067341596127   -1.87467962038181   -1.15922564464218
H         3.16542823278204   -2.28627319451703   -1.51248159791348
H         2.04494892360363   -1.94928055421075   -2.83583177910045
C         3.87034895764226    0.09375824782714   -2.71573986540922
H         3.55699100987600   -0.05867983207703   -3.74737707578638
H         4.69672692950654   -0.58331623612168   -2.51386371647362
H         4.22068262099041    1.12276134189427   -2.59730737649357
C         1.49538781902499    0.64775638722336   -2.22257853874697
H         1.72934900364743    1.71021234799869   -2.20928003915764
H         0.63011569957628    0.46417253812237   -1.59043401716323
H         1.22776210945101    0.37038460347045   -3.24056499508521
C         2.97973951587725    4.27870092900341    0.84949736929554
C         2.62133048801112    3.68317531847412   -0.38493189415337
H         1.61961827948951    3.39922572307653   -0.67926282953692
C         3.73673073137429    3.74523717948588   -1.25765135347078
H         3.72565905000396    3.51563640988389   -2.31790300131912
C         4.77880344621485    4.40971353939508   -0.57110524196218
H         5.72734872592173    4.71768727610247   -0.99284446839467
C         4.31967643404041    4.72759143569494    0.71671109469075
H         4.86105198089948    5.33349620017066    1.43051638045100
C         2.05523056028440    4.65127087154673    1.99504248723687
C         1.78005907792983    6.16200156961863    1.91931518372336
H         1.29975566838494    6.40985396385399    0.97563136859945
H         2.70808354895447    6.72382452767508    1.98408633860973
H         1.12836859579238    6.47248697230301    2.73357650718627
C         0.71923411786153    3.90580312301665    1.91441929034953
H         0.19975118456942    4.13369626136398    0.98692434641688
H         0.07713013946503    4.21166153655539    2.73845766795987
H         0.87337015584164    2.83100647102711    1.98345103093300
C         2.71542334016298    4.32103164888042    3.34043839866717
H         2.01834461769158    4.50488111775358    4.15652432314776
H         3.59134331908102    4.94447752619965    3.50218626558003
H         3.02118018651127    3.27141735754146    3.36160634125838

