67
CSD_code = IQEZOT | q = 0 | S = 0 | Stoichiometry = C32H24N6NiO4 | MND = 4
Ni        3.32029047447052    5.97706251390838    3.43528025072595
O         4.33537032735935    2.06665485113650    3.87877989698686
O         4.46550154078358    9.84827820375845    2.96147436241734
O         1.76276997215863    9.91232955597824    2.65227791907180
O         1.64151428672117    2.10017171459522    4.26189460233646
N         3.41107250337423    5.93690374198150    1.58813914837851
N         3.29074471964051    4.04331811213223    3.43488254543014
N         3.46291502666419    6.01301365039031    5.27919546968891
N         3.36261898895454    7.91065439214170    3.43555650836586
N         3.86075793530050    5.14108085206566   -0.43664027282522
N         3.99727479048290    6.79092174251396    7.29032007648131
C         4.13700425634851    6.88122399885508    0.91623765162513
C         4.43822293053151    6.39026749131064   -0.36672466820535
C         5.18495965046413    7.14022661465526   -1.26392447691283
H         5.42330224282400    6.77580627093373   -2.25143147098109
C         5.60946143708214    8.38691294923834   -0.83923630437209
H         6.19317267839540    8.99801881258819   -1.51125004595242
C         5.29839273705279    8.88120448392407    0.42623754651431
H         5.62884203999574    9.86410114112855    0.72554293194969
C         4.55514364724409    8.14292206666375    1.33353833262369
C         4.13221835411700    8.71304038910044    2.64300653142172
C         2.61353992236873    8.58408814794980    4.39279380676498
C         1.81784929276737    9.68914403991626    3.98911060980773
C         1.12233334716023   10.42025973961003    4.93505424045333
H         0.52626971519815   11.26928886784600    4.64027638593506
C         1.15265383534926   10.05556671504491    6.27661006621774
H         0.58454174222866   10.62867808896510    6.99366768533045
C         1.87632483839727    8.96143734416940    6.68553386914865
H         1.83615953196422    8.64346756067004    7.71501895421876
C         2.62388363875197    8.23109439670816    5.75514394470313
C         3.36264965500081    7.04396143874157    6.11361388045400
C         4.24236602988942    7.70383589615100    8.37224231293361
H         5.25064500671356    7.53792730388205    8.75330929726524
H         3.53141932805174    7.54868744913432    9.18803125810571
H         4.16282709546009    8.72836314898442    8.01262400880664
C         4.52608472128435    5.52128767069633    7.20534549122014
C         5.26896410594483    4.74376103538183    8.08206206675928
H         5.54789077957365    5.09866313509637    9.06238725327744
C         5.63489115562360    3.48228407597142    7.64668511209824
H         6.21385920144403    2.84971367707046    8.30275357523815
C         5.27100421802308    3.00035111468654    6.39055981894529
H         5.55650372096850    2.00601657195917    6.08288967030116
C         4.53117717294254    3.76616281100260    5.50353355970923
C         4.17175410318028    5.04231161493244    5.93144991227634
C         4.05211664429376    3.21288898905992    4.20622195836278
C         2.49204390965073    3.39816587756048    2.49849993359642
C         1.66799633726390    2.32248761721618    2.92402511488709
C         0.92096055836338    1.61770625215035    1.99755809348881
H         0.30268070194418    0.79067827287292    2.30867174510857
C         0.92824326077638    1.98175191268410    0.65551230592011
H         0.32003395697749    1.43051561855676   -0.04555741690186
C         1.67971156301692    3.04921245835068    0.22673256547866
H         1.62289880010466    3.36935705236547   -0.80127732456675
C         2.47825227868974    3.75138005260651    1.13623995354982
C         3.24994301513428    4.91084617927055    0.75723652716594
C         4.04294385130705    4.22044191023950   -1.52443066867870
H         5.04634046214516    4.34889034006730   -1.93199485055441
H         3.31700817236610    4.40272658838715   -2.32118274976685
H         3.93473575117229    3.19931938469414   -1.16264540223222
C         1.10293477902619   11.05925539479293    2.18331745720679
H         1.24996825098205   11.06001704928745    1.10426647064750
H         1.53636219628971   11.97039580395730    2.60675730575984
H         0.02919546336901   11.02621215531328    2.40187101767722
C         0.95284527183577    0.97787640998363    4.74868783696251
H         1.12971910183277    0.97004232659610    5.82322659661446
H         1.34010192399064    0.05176456034589    4.31306479279054
H        -0.12457894878330    1.05110240007725    4.56014542274578

