56
CSD_code = IQIMOK | q = 0 | S = 0 | Stoichiometry = C24H27ClN2ORu | MND = 9
Ru        2.71934766886611   -0.84171332292211    4.45307967873314
Cl        4.61411476199690   -0.86673180928104    3.07324417423971
O         4.03142263076816    3.05814409399067    4.77721726360558
N         2.03834072106833    0.54729044953960    3.14311548369527
N         3.53337993965849    0.91793401470991    5.19729788255434
C         2.99903858256287   -3.10608050937623    4.78510997270539
C         3.03813596347296   -2.47215904841750    6.03960008514653
C         2.00507330220430   -1.58050315434804    6.42574818203430
C         0.85537018047770   -1.38924620658980    5.62317686313009
C         0.83250730129319   -2.02973281048849    4.36075896793683
C         1.88551018570958   -2.86451011085796    3.93427809170427
C         4.09978563647388   -4.01841407845443    4.34234169521193
C        -0.31332290901223   -0.55657776647600    6.09430546381076
C         0.12064433769535    0.88500267526291    6.36994157053176
C        -0.95774081980944   -1.18616728297213    7.33318163296674
C         1.29569579665385    0.53644154185081    2.03919255403499
C         1.24838007384696    1.81529059384034    1.48232615380856
C         2.01697004467112    2.64209907969418    2.28854340822569
C         2.50750354205000    1.82789780959691    3.31320165304948
C         3.36367083142502    1.95914683122954    4.42661930530382
C         4.96329758646060    2.67722347891168    5.80024181548303
C         4.49632182914027    1.24991625654098    6.23105983605460
C         5.60960274314973    0.21237827740957    6.33062287571621
C         6.36617638613371    2.72461149548456    5.24996808110949
C         7.38546785419417    3.32032837166614    5.98002637045431
C         8.67491047034121    3.35246234613642    5.47918870818723
C         8.95227090859197    2.79332362256871    4.24345448113985
C         7.93730771534637    2.20178105029585    3.51045428530008
C         6.64776195394306    2.16567662155277    4.00891350950835
H         3.83841938363530   -2.70477835981288    6.73297967845048
H         2.04299550600447   -1.13972390679411    7.41677819670871
H        -0.04878741312506   -1.92602657993158    3.73507233441623
H         1.80901335516271   -3.39780403427064    2.99292303632414
H         4.77526839133105   -3.46208062782996    3.68635967199527
H         4.67356025587433   -4.38388244796769    5.19120105024646
H         3.70325435744613   -4.86280290489677    3.78146036385345
H        -1.05972233404027   -0.53616357381731    5.29184516514171
H         0.81416823922093    0.92943046105862    7.20666146585717
H         0.61159009626514    1.30091890522283    5.49006225156365
H        -0.74458616934205    1.49866880074807    6.60960899837563
H        -1.26045970573004   -2.21117967699275    7.12828660581448
H        -0.26456375827632   -1.19301194234154    8.17131297225015
H        -1.83833246781240   -0.61821004188559    7.62316130387961
H         0.83162779198381   -0.36253991294663    1.67345711431250
H         0.71131451144119    2.09494431329183    0.59688205608552
H         2.21434837834051    3.68833673310008    2.16601004020429
H         4.85850974738226    3.39435496264887    6.62086477848041
H         3.97267720435056    1.31082693643607    7.19827122465087
H         5.22733252487693   -0.68468745529641    6.81016794385578
H         5.96656606067429   -0.05085579512785    5.33738501730284
H         6.43664710794838    0.60142252368694    6.91898961968225
H         7.16871461288567    3.75996211454614    6.94380716931411
H         9.46264341354024    3.81753152044531    6.05368592776404
H         9.95884474199132    2.82000475271617    3.85275779313769
H         8.14685226981591    1.76094892722231    2.54787795933135
H         5.86355867877770    1.69478379868902    3.43392021562834

