83
CSD_code = IQINUS | q = 0 | S = 0 | Stoichiometry = C40H32N10Ni | MND = 6
C         2.02876256491455    0.99141301568144    2.37996004027595
C         1.70498020507337    0.85283310739816    0.95680916399244
C         0.58063947662663    1.17298938279033    0.22283238873530
H        -0.28516643775296    1.60168014491431    0.70197976252540
C         0.61348415999906    0.92329504334982   -1.14276024089127
H        -0.24865388576310    1.16304043126758   -1.74816343442398
C         1.73621018787691    0.37295706653835   -1.74805067306235
H         1.72756142898625    0.19485883973634   -2.81365244518703
C         2.86662051945257    0.04833192385926   -1.00973401319577
H         3.74322709294845   -0.37926047628144   -1.46980898446268
C         2.83457382447264    0.29607239439264    0.34780646096748
C         3.81873224169001    0.08568110705376    1.41437094003320
C         6.36102171535750   -1.57359152316929    4.21851087800411
H         5.99182478259875   -1.82881995171888    5.20461566027021
C         7.66074153856936   -1.86523981565747    3.86904785853119
H         8.32319563626229   -2.32560463894756    4.58542552594071
C         8.11134784811340   -1.54762930170172    2.58374152515908
C         7.18991949339277   -1.02717607768799    1.70325764142746
H         7.44425395835902   -0.80036867702179    0.68008249666412
C         5.87368737244123   -0.77314532026279    2.12360479165973
C         9.53153798181879   -1.79935421291413    2.18908783342095
H         9.71617487849689   -1.46998423498566    1.17003252856150
H         9.75913816384214   -2.86224447039048    2.26133522183742
H        10.20623222498668   -1.26992230313699    2.86041480641480
C         1.47217210919768    1.77055389010410    4.51048970748857
C         0.39587139566622    1.94626625955937    5.39586170384073
H        -0.59126045692134    1.68591277848134    5.04814037818958
C         0.61559822786227    2.42978126161014    6.66603141113294
C         1.92404247104462    2.79965460881715    6.99360808829759
H         2.14651250645390    3.24048060277335    7.95280306310689
C         2.93358976533943    2.58199173008380    6.08267801752495
H         3.95062996903698    2.87408702205673    6.31587899819706
C        -0.49311022780666    2.58947385991174    7.65646514087776
H        -1.43494499772487    2.23475964742368    7.24639111618437
H        -0.60276151564124    3.63697346345927    7.93464903321124
H        -0.26704769418852    2.02856326722023    8.56216998929744
N         3.29007459078013    0.52329266908136    2.59012108849474
N         1.16871822582225    1.44452519851255    3.23044102599541
N         5.48765726469200   -0.98983107136347    3.39822431456568
N         2.74348354610888    2.02375697471124    4.88709829568369
N         4.98973727219337   -0.40091757082625    1.16530631604036
Ni        4.15717593983125    0.52339071664193    4.20645193705521
C         6.28545793928681    0.99405062588094    6.03240720472988
C         6.60996420632972    0.85534756324725    7.45537469103819
C         7.73453807733834    1.17583715225715    8.18884319852535
H         8.59932415725794    1.60646647470626    7.70959616593947
C         7.70203199628476    0.92700794022952    9.55460443284094
H         8.56386402411000    1.16825725079441   10.15983261872487
C         6.57943343931017    0.37707035500306   10.16050706760580
H         6.58897276260803    0.19808846105637   11.22594311440940
C         5.44903774515384    0.05148146597991    9.42259450309383
H         4.57326479022967   -0.37759938775417    9.88285961802729
C         5.48064839423346    0.29859690373644    8.06492712368572
C         4.49647829781836    0.08688357012462    6.99863410325186
C         1.95497486875024   -1.57574372302048    4.19584957486028
H         2.32402289514720   -1.83065691333553    3.20959713600145
C         0.65517939728856   -1.86706665060946    4.54529394284990
H        -0.00728669394073   -2.32773245883200    3.82912880603181
C         0.20441351145737   -1.54849609169194    5.83030472647440
C         1.12559696538998   -1.02708305118394    6.71047046394530
H         0.87103113955634   -0.79933202001691    7.73338181813653
C         2.44174708870763   -0.77291297438474    6.28998264161425
C        -1.21590145747469   -1.79959962985987    6.22479639316228
H        -1.40059313756158   -1.46952658553779    7.24361021401958
H        -1.44359307238272   -2.86248699414736    6.15324131709744
H        -1.89033449110288   -1.27058255284892    5.55284771365057
C         6.84110173602858    1.77181477177604    3.90116259385075
C         7.91690100071796    1.94601057808614    3.01487158951353
H         8.90409323105033    1.68508578765311    3.36201799067879
C         7.69645229164486    2.42790535146702    1.74421028461192
C         6.38789428398733    2.79771653915047    1.41696823921026
H         6.16505620944808    3.23797259213466    0.45758891685557
C         5.37888946132816    2.58136861824619    2.32876446373656
H         4.36215870707375    2.87557097661260    2.09685024883834
C         8.80429770647199    2.58467653979092    0.75232697342825
H         9.74584862750386    2.22800543670855    1.16136035471889
H         8.91597668662923    3.63180457125429    0.47368638753492
H         8.57584550532042    2.02396985826921   -0.15294230330940
N         5.02443175166416    0.52488097061099    5.82270337549431
N         7.14504140299077    1.44716969054423    5.18145993603130
N         2.82804444938436   -0.99092119464094    5.01565836514981
N         5.56962866798175    2.02488438240504    3.52507897173895
N         3.32578007245101   -0.40021096121302    7.24804966381802

