43
CSD_code = IQITOT | q = 0 | S = 0 | Stoichiometry = C22H15O4OsP | MND = 5
Os        6.27667904541087    3.59803720583515    1.98643577566946
P         4.90997867305432    2.05286342712949    3.17544020700418
O         3.66254975846303    5.19607793390638    1.57129735283912
O         6.92388963158164    1.22414512497786    0.11259301053267
O         7.86997599767799    3.88233488143757    4.62090961778806
O         8.00826622427139    5.59662313982069    0.45542508251498
C         4.66346344759551    4.63737694645196    1.70626059617760
C         6.70286706410280    2.13753981153802    0.78216596146734
C         5.42090397377096    0.30226496880683    3.08948652343107
C         6.76179212311849    0.02247328253411    3.34700213812432
C         7.22149263137865   -1.27895916547760    3.30184774886172
C         6.34805477379350   -2.30978955792779    2.99004735179016
C         5.01559244690632   -2.03546956415909    2.73334812713062
C         4.54613158624874   -0.73380025980254    2.78453036763881
C         4.68080014431479    1.52964077226420    7.24538099359181
C         4.48204880973031    2.82659609549141    7.68781882873870
C         4.41386746922568    3.86829337280598    6.77554553598604
C         4.55316420258192    3.61152409635222    5.42540165222389
C         4.75419978818114    2.30783209720352    4.97655965712805
C         2.09790412885945    2.05132486880357    3.54113815539873
C         0.79951684612360    1.99444173846122    3.06302796197913
C         3.16314240069945    1.96920940978409    2.65258408861229
C         2.91651709004910    1.82882509961938    1.28766642037527
C         1.61927674137439    1.76460059486795    0.81879937465141
C         0.55823891619227    1.85142031836590    1.70746498053407
C         7.30675390334697    3.80169148923117    3.61680105539509
C         7.35622405241161    4.84234061067963    1.03285320077259
C         4.81406163568955    1.26421423134698    5.89328319445459
H         7.43859871838128    0.83777587401256    3.57756850437226
H         6.70832179330533   -3.32663229724413    2.94416946507961
H         4.73444601535126    0.71777175727855    7.95573511584564
H         4.96733565250519    0.24978903377846    5.55337032899853
H         3.75368639757698    1.77542099393378    0.60046308678531
H         4.38315825862263    3.02724320669554    8.74415586475775
H         2.27977455560656    2.16310777629296    4.60056580342039
H        -0.45664514921065    1.81182914358198    1.34097998953369
H         4.51260653787218    4.42055880792013    4.70423114328955
H         4.33506607113640   -2.83800800076401    2.48953222012943
H         3.50437310606935   -0.52605364977138    2.58529906135465
H         1.43358238646134    1.65465023044371   -0.23928584077709
H         4.25889654887920    4.88059281042755    7.11802068848675
H         8.26132042431286   -1.49036774778434    3.50214464932363
H        -0.02657482303284    2.06514909084581    3.75523495858325

