88
CSD_code = IQIWEK | q = 0 | S = 0 | Stoichiometry = C35H45N7Zr | MND = 7
Zr        3.46148907579022   16.03276608491309    7.07530699677571
N         2.49008584404211   15.00669209970466    5.45564587682661
N         2.14683367611218   17.28574540411467    8.32515811479069
N         4.34781926170071   14.89432827317058    8.66000995261283
N         1.75096904435882   14.70380937084839    7.95814093586362
N         4.88692715802276   17.81410971051350    7.62646441047349
N         2.86519147340555   17.91759751234679    5.79037667635446
N         5.16913763229633   15.68864460797623    5.90100220264078
C         2.51297353988855   15.08874578934383    4.09471987285315
H         2.92633575001285   15.95352494920902    3.59597754564113
C         1.94081698601972   13.97188073548361    3.52950052558370
H         1.81537484127048   13.76966315943140    2.48199218764273
C         1.54470100471642   13.14301516736562    4.59677281642729
H         1.06365085495227   12.18508623181587    4.52606063152514
C         1.90588000713648   13.80466871188379    5.75089030055232
C         2.11081636685416   18.61855046867741    8.60560294931794
H         3.00015759888734   19.14566426450265    8.91943632847107
C         0.83161139698160   19.11500521751588    8.49439425025257
H         0.51127963358057   20.12544074588493    8.67243129923187
C         0.01685694367007   18.02782788986739    8.12482352348072
H        -1.04503475989603   18.04512756659891    7.95897156192154
C         0.85378084228023   16.93448653548646    8.03223443381303
C         5.60669378558045   14.45808751216810    8.95861236537544
H         6.46423535116627   14.80764583899058    8.40290934601208
C         5.57404152554540   13.53845552377781    9.98163376342406
H         6.41296212962276   13.03389861367233   10.42346381679763
C         4.22000458655825   13.38253531072261   10.33466997438135
H         3.82238528745983   12.73972402342524   11.09813698523149
C         3.50698516491567   14.22209458485483    9.50635436470384
C         1.74277970944404   13.45034711265924    7.20079743003264
H         2.58635672022229   12.83433108197804    7.55183159226792
H         0.81296107796680   12.87743921953045    7.36960024713661
C         0.53297900346332   15.48965484179870    7.75052533340207
H        -0.28412394050493   15.13727861385906    8.40730978048040
H         0.19729646087576   15.35620379981240    6.71166315966607
C         2.03541537665701   14.48182935276404    9.38100237491516
H         1.44767407897132   13.64007508505686    9.78506973540678
H         1.75930281300204   15.39107626495532    9.93285800347635
C         4.81343387049486   18.87932921913593    6.80585014793642
C         5.84522000477404   19.82183159489554    6.72001480767840
H         5.75673006924433   20.62264156269777    6.00534379134245
C         6.97112361546770   19.70851896361819    7.51811277439995
C         6.98801948642771   18.63316239742439    8.41597891472427
H         7.80911389399503   18.49603775434481    9.10047754880617
C         5.94578102225974   17.72754418421744    8.42616196353566
H         5.94331119310491   16.89692106204739    9.12313104284122
C         3.55728837957225   19.03804048515501    6.05607686217372
C         3.07800769777232   20.30550610487141    5.71124757710733
H         3.66149595186606   21.17076770944084    5.97448017648858
C         1.84252489131308   20.44795641729232    5.09917824564480
C         1.13623698084123   19.26923855158875    4.84549817166813
H         0.16313523356079   19.29242697779611    4.38364811010611
C         1.67871422240121   18.05011347052735    5.20583413260553
H         1.14222721073905   17.12963936595358    5.00117210057426
C         5.47576087836892   14.28827124800728    5.69163825863771
H         6.56844665146309   14.11747098863317    5.67216576123998
H         5.07937038357405   13.92971299249833    4.72283037807666
H         5.04422009919057   13.67402933764387    6.48830972635081
C         5.75587870829489   16.45714493060558    4.83484890127779
H         5.32363472834737   16.20025633736754    3.84898226172909
H         6.84407329132041   16.26573021599116    4.76034573705308
H         5.61300901291411   17.52996468437947    4.99218378816235
C         8.13659537850115   20.67729861353720    7.46621980075524
C         9.40678749243174   19.89492142668488    7.10396729479841
H         9.28706070849092   19.40754736353990    6.13875647717178
H         9.62782332021840   19.13301947847605    7.84582431947430
H        10.25633601627052   20.57145529847288    7.04621462417510
C         7.93552201653839   21.78361751049214    6.42771318360126
H         7.83590611775654   21.36903792417460    5.42721040389289
H         8.80003148083988   22.44364355877357    6.43177627864382
H         7.05747481219766   22.38286431810961    6.65773640425622
C         8.30010912272009   21.33003759922791    8.84625800566065
H         8.51793856520185   20.59143104749300    9.61210008457815
H         7.38932408549941   21.85491168114644    9.12661832040581
H         9.11758325994781   22.04680370213429    8.82305793607772
C         1.23797498372973   21.79075053733171    4.73962299567454
C        -0.06612054220105   21.95566104291285    5.53245187246588
H         0.13163860284732   21.87963641037715    6.59900097430317
H        -0.78975328369358   21.19037471319791    5.26777635404331
H        -0.50584835837989   22.92923430322571    5.32849257051796
C         2.16393731454548   22.96198600465002    5.07671539274440
H         3.10574107306901   22.88570490297433    4.53765830779791
H         2.36283370310790   23.00818909405245    6.14478824145241
H         1.68640587182414   23.89482911749582    4.78516104083209
C         0.94501384021066   21.82171395053020    3.23297731531310
H         1.86329593057174   21.68352538694296    2.66597359646217
H         0.51238906057883   22.78116710551275    2.95933682117297
H         0.24643864385875   21.04082408054281    2.94732853897948

