85
CSD_code = IQIXEN | q = 0 | S = 0 | Stoichiometry = C34H40N8NiO2 | MND = 6
Ni        6.74493451633526   15.35505703638482   13.16607432000982
O         8.11065448366837   14.16344467529735   13.32843857961918
C         8.89469593491486   14.30808337332735   14.32507231520970
N         8.81776095043434   15.27287128740453   15.20955760854000
N         7.87073501280421   16.20813713785646   14.88565068888887
C         7.55207639374338   17.07716596089610   15.78121459171090
C         6.65642291506738   18.16756204031868   15.39265177266354
C         6.76673942383687   18.76012072675078   14.13329388519284
H         7.51961549589721   18.41689515095484   13.43971490437271
C         5.90705586294594   19.79168968563170   13.80169381935628
H         5.96232804058948   20.27374584921771   12.83394869589364
N         4.97564035158674   20.25861168173263   14.61814430194696
C         4.87547920213499   19.70517241617606   15.81530530970130
H         4.10152874180958   20.11446264373820   16.45290846626009
C         5.68534290932527   18.67391934302826   16.25726036724083
H         5.54944409036527   18.25892629816666   17.24464577282490
C         8.08071459307678   17.03982702887777   17.18588778141719
H         7.37171685801343   16.54393515453009   17.84988742270209
H         8.25565541210221   18.04649233841997   17.55867560093915
H         9.00598237712491   16.46846895491488   17.18931703605490
C         9.96488091445505   13.30694868601199   14.52210493459046
C        10.85975786978874   13.41718797542180   15.58221413018109
H        10.74294501171874   14.23527670176997   16.27466707109849
C        11.87907810421623   12.49646514201937   15.72653660613046
H        12.57519015950973   12.58813369824430   16.54765282051910
C        12.01565993939513   11.45880841563707   14.81824730435319
H        12.81765667381957   10.74388918263322   14.93027253775853
C        11.12508423663900   11.34104996053191   13.76444807315930
H        11.23161484135246   10.53437347777559   13.05353388613676
C        10.10394207324918   12.25912468410757   13.61728034858226
H         9.40986535438961   12.18512284680792   12.79278239845917
O         5.34845574688121   16.50728381725341   12.94371020035669
C         5.38692140771297   17.19206819058005   11.86880012643227
N         6.38753548656951   17.17836645996705   11.02004044792927
N         7.42384794761039   16.40455501879961   11.46788677918180
C         8.41912227888617   16.22825869764780   10.67082303143503
C         9.63949811689043   15.59178928644714   11.18036577958768
C        10.22972735836581   16.06523971255696   12.35254456565351
H         9.77083581777031   16.87191833952177   12.90370701922092
C        11.41007742589365   15.48683818042278   12.78578797312697
H        11.89881856426071   15.83029313844949   13.68799828371428
N        12.01809527528470   14.50007326570630   12.14845665499148
C        11.45302024928908   14.04233419654515   11.04428343028906
H        11.97448453299561   13.22617937839060   10.56008236809379
C        10.28068418965804   14.55069418207061   10.51193772452197
H         9.86242072348629   14.12913972374450    9.60987345122329
C         8.42205501537922   16.74986515303700    9.26479851978831
H         7.40988372845450   16.73353097261090    8.86666964319678
H         9.09337870159384   16.17399942044251    8.63337117497187
H         8.75714323880094   17.78739642300476    9.26887124551467
C         4.24453971217921   18.07277809072407   11.54935659371434
C         3.22342648222466   18.24257742340146   12.47945979038177
H         3.28083506908545   17.71708641488333   13.42129109423763
C         2.16465478804143   19.08607535033257   12.20486826555044
H         1.37956114446443   19.22053749543143   12.93431321461181
C         2.11371427349206   19.76354460758196   10.99786270022141
H         1.28677881956705   20.42496537070686   10.78414396029803
C         3.12638434294865   19.59644294537889   10.06614911435813
H         3.08642745368682   20.12765429552049    9.12609528598824
C         4.18907302108164   18.75666785226317   10.33798659126844
H         4.99103309391667   18.62139725727446    9.62989900326611
N         5.42023160982538   14.13900132788561   14.63499787718660
C         4.47467178668607   13.41421724471714   13.77981646085250
H         3.72780235957978   14.12816716684242   13.42789398310428
H         3.95620542922345   12.63338024808041   14.36126400629664
C         5.15372613992428   12.76717066605178   12.57293308418263
H         5.98730722166438   12.15230768743407   12.91710478073952
H         4.42786523789132   12.10726194437407   12.06686672881873
N         5.68351760496562   13.76371584920653   11.64154304246661
C         4.61247989657639   14.29660904247429   10.80651114930723
H         3.84807364403917   14.77368484153480   11.41524420453058
H         4.14196706543565   13.50021942548697   10.20918523560358
H         5.01401971300857   15.04919616457718   10.13023289902365
C         6.67988456786673   13.14514826089358   10.77255106452374
H         7.02782039493904   13.87665163415403   10.04580800690138
H         6.26079557556392   12.28316204917940   10.23149159124078
H         7.53183921519277   12.82232682351944   11.36616973925651
C         4.67504533187092   15.04533612423317   15.50757261358720
H         5.36287148327607   15.53970100971359   16.18993570827395
H         3.92520942034522   14.49747252246885   16.09716198380895
H         4.18028328240122   15.80863251464927   14.91186173273233
C         6.15020751705894   13.19757669878479   15.48135426733050
H         6.71655175955263   12.49244711895788   14.87792937553849
H         5.45881229755492   12.63552301880074   16.12689836277578
H         6.85637869477094   13.73567040069906   16.11125471727703

