75
CSD_code = IQODOI | q = 0 | S = 0 | Stoichiometry = C31H38Cl2N2ORu | MND = 5
Ru        2.27910767384002    9.01936187602547    4.94351287266322
Cl        0.68261003207669    9.70831475523079    6.46036961413265
Cl        4.26376253016117    8.23206327032797    4.10016731320431
O         3.49082096136003   10.78814059224754    5.60182721718560
N         0.16974840720659    7.24509400209291    3.60507743018490
N         1.25928673442161    6.36558970626263    5.25488565797283
C         1.16136102256406    7.44575983337027    4.46746988785067
C        -0.47388352985816    5.94298206186982    3.76306536666357
H        -0.39729912814736    5.36959034007886    2.83348305852462
H        -1.53395438861349    6.07055874745614    3.99793717675388
C         0.30843374864049    5.31519023951939    4.91903816945368
H        -0.32752046967119    5.08905934112451    5.78006358992735
H         0.83545012704980    4.40032888237194    4.62931915017779
C        -0.24645466277501    8.09600954985092    2.54951383227966
C         0.46585362914773    8.07877824727921    1.34755152728741
C         0.02246606431947    8.87619660936773    0.30493851000959
H         0.56674735228065    8.87561867392936   -0.62865440744882
C        -1.09846864401364    9.68620875937636    0.43826194452932
C        -1.77107273917005    9.70164176280634    1.65039536794988
H        -2.62955459770753   10.34635494751386    1.77335806327223
C        -1.36026954374862    8.91676596175269    2.71942937206576
C         1.71475396030535    7.26319684974614    1.22325863924071
H         2.14536761823747    7.36715716377601    0.23145197457108
H         1.51833943781034    6.20771323731015    1.40687814159987
H         2.44492732902531    7.60751060358826    1.95907823898171
C        -1.56254819717019   10.52549247783075   -0.71350028848345
H        -2.05614404547637    9.89896556350942   -1.45674233249597
H        -0.71921282446122   11.01374703379207   -1.19790487705915
H        -2.26759647501354   11.28425694109731   -0.38385152809217
C        -2.06523263752516    8.98272306978252    4.03778226199997
H        -2.66027506089123    8.08643778290156    4.21247041259629
H        -2.72982871211817    9.84144866662864    4.07142807122555
H        -1.33728045322074    9.07244223311610    4.84341260523584
C         2.33605529971808    6.13986771327711    6.16026795369683
C         2.16076066103455    6.37913682640143    7.52800266981032
C         3.24557023092300    6.19535100888105    8.37578047179984
H         3.12376405166065    6.40063758821105    9.43021452856634
C         4.47088573256612    5.75179874370032    7.90352708150680
C         4.58940494484787    5.43199961512084    6.55811094716819
H         5.52547953560368    5.04179636891883    6.18556929399762
C         3.53564854012687    5.60340763964396    5.67388025105873
C         0.82379117618536    6.76118015406699    8.08535476603429
H         0.36848194802193    7.56574118908859    7.51000142086700
H         0.92061118561478    7.08803059531731    9.11750969706134
H         0.15279402996150    5.90154496283288    8.06245943228859
C         5.64415532185706    5.58921896186783    8.82115757436950
H         6.44992422489341    6.25824199551766    8.52090441074690
H         6.02547781821035    4.57014607838912    8.77475981413631
H         5.37115884666305    5.81363780366358    9.84918082182782
C         3.67823277769400    5.14780231642721    4.25291807747208
H         4.69450912273764    5.31231271577546    3.90699509878634
H         3.00639232490643    5.68470198097018    3.58965799750152
H         3.46292715159720    4.07885569079127    4.19048023671822
C         1.88673706561589   10.26132106168504    3.56106192402624
H         1.21038432368070   10.12664012506295    2.71626577591675
C         4.17083037704209   10.92356122219394    6.84547088802914
H         5.16981622009102   11.34746613697760    6.66410886632301
C         4.30590231309456    9.50575097928964    7.39148767642700
H         3.31068814919335    9.06177815603169    7.50193553806201
H         4.78589990721335    9.51287640996048    8.36613776367967
H         4.89823794128428    8.89145574938050    6.71227347660418
C         3.36529828079422   11.80976844588294    7.79434431078379
H         3.24815170507715   12.81266205281267    7.38958708601207
H         3.86433649491624   11.87459530279538    8.75746092048481
H         2.37456033509484   11.38005195647517    7.93509525908611
C         3.41981203475197   11.79245782048688    4.70025220136460
C         4.10306230339370   12.99577496986922    4.76486692795862
H         4.76790755835431   13.21775503974119    5.58538514031535
C         3.94047558853674   13.93165935888737    3.75414569348273
H         4.47943173604762   14.86546512048561    3.81075732569124
C         3.09613010512195   13.68085113064276    2.68173325761781
H         2.97828576232433   14.42277600201814    1.90643133387958
C         2.41265229962071   12.48719363797384    2.60581840276311
H         1.75554653057222   12.27886807491749    1.77405615380249
C         2.55678752449178   11.50936151465156    3.60381949832301

