70
CSD_code = IQOFUR | q = 0 | S = 0 | Stoichiometry = C25H39Br2CoP2Si | MND = 5
Co        2.30856823027708    4.46989504486555    4.13888406880976
P         2.65340854656076    5.35868494206185    6.16521960181434
P         1.53027638556277    2.96397386003121    2.71065998541802
Si        4.18825088547028    3.02185573267786    4.55857420853641
Br        0.38097977958093    5.71137664311262    3.68324262383659
Br        4.40594930022143    4.95583674629766    3.09862804198270
C         6.06099967708470    2.98842643642569    4.95594893375433
H         6.28655584185447    2.16270690658970    5.62280986702083
H         6.39751886748880    3.89773219017903    5.44499364196413
H         6.65096533339704    2.87363391266354    4.05173680324822
C         3.42692325805173    2.73081839338135    6.29066195818957
C         2.88458116121540    3.77093977389906    7.05115212705757
C         2.51280364294075    3.52237461283818    8.36878905919245
H         2.10397644917016    4.31022432213132    8.98272818202282
C         2.66014352528238    2.26008524316334    8.91502793804920
H         2.36796111050638    2.08337173596300    9.93993659260824
C         3.17166246530757    1.22416915429225    8.15101324193679
H         3.27238627116373    0.23489018231842    8.57250303322571
C         3.56107557879414    1.46569473342732    6.84719309600799
H         3.96935785909612    0.66311686875566    6.24859118541179
C         3.83548902012330    1.59331063303252    3.36415469464867
C         2.70590049551095    1.56590635350921    2.54450077815607
C         2.47717966425661    0.45670877390361    1.73722939011040
H         1.59031948585755    0.39678120154584    1.12827741289080
C         3.37385273659136   -0.59563871451333    1.71548332881961
H         3.18633676438850   -1.44715039917121    1.07749958759903
C         4.50195527476832   -0.56205806528840    2.51728489918013
H         5.20308210453259   -1.38359881447131    2.50625413040868
C         4.71943016372962    0.52491637333053    3.34265192840630
H         5.59058317911115    0.54351739284405    3.97890659213547
C         4.55013922289078    6.39628518455724    8.04823709806538
H         5.57639065369086    6.73355905154001    8.18852784460344
H         4.41737655957440    5.47256280339800    8.61001444278119
H         3.89199520708896    7.15836933590971    8.45943363923796
C         4.28841671105844    6.18276478534568    6.56241928165969
H         5.01912635693247    5.44908335894735    6.19380555650441
C         4.47574316879314    7.47217817542487    5.76419277355338
H         3.98947594456846    8.31158745898763    6.25308115574946
H         4.06317686262912    7.37671232691612    4.76111780453733
H         5.53491553464309    7.70535149818884    5.67192956408884
C         1.14358247606566    7.65734334715768    6.74960821772990
H         0.90216880012113    7.67074716828728    5.68945717788210
H         2.00633589076309    8.29485787112540    6.92151962634684
H         0.29886896502125    8.07939880974854    7.29153550019573
C         1.39310227894400    6.22921415736953    7.22831232084837
H         1.80983585544109    6.26221129885978    8.24320679674146
C         0.07806929598355    5.44966160372668    7.24934887322572
H        -0.57160421819067    5.84539434001308    8.02849145666963
H         0.23524142022724    4.38893520471993    7.44357119776123
H        -0.43634354405170    5.55719661800707    6.29831975793789
C         2.15283161533412    4.28582552052814    0.37014943985830
H         3.04534140168342    3.66570709650799    0.28306236432833
H         2.39806885148647    5.16483915860694    0.96228859993521
H         1.86894276319923    4.62192027466433   -0.62514938973270
C         1.00381590136229    3.50618146964220    1.00705936222139
H         0.19021187224759    4.21227921817848    1.22302711975972
C         0.48176196611059    2.44532559753417    0.04228173290796
H        -0.03900932906307    2.94503317233229   -0.77398805626792
H        -0.22198816449232    1.76297857519747    0.51478361778045
H         1.30194723187696    1.87777396959110   -0.39211426036270
C        -1.27817201107977    2.64622046495289    3.21522413817735
H        -2.05022100744638    1.98135710105703    3.60160857903446
H        -1.50875388301127    2.86604870541126    2.17602928752220
H        -1.32140008421661    3.57585744976114    3.77565490933849
C         0.08150521943966    1.97551152049850    3.36410830275454
H         0.07861882040379    1.02968306599705    2.80585748178887
C         0.37581603005635    1.67871996139131    4.83323554688667
H         0.46054092216422    2.61264595778984    5.39416323921013
H         1.30704309408000    1.12180492040560    4.94382438868614
H        -0.42758771023114    1.09317023193204    5.27732657761882

