77
CSD_code = IQOGEC | q = 0 | S = 0 | Stoichiometry = C30H41Br2CoP2Si | MND = 5
Co        2.91986199165246    5.58394945869253    5.89923940349586
P         2.71351576848822    7.72629492137533    6.50578700752568
P         3.31266378716740    3.34829769824313    6.10469752627651
Si        5.15473461018276    5.73605348950556    6.37607560492554
Br        0.64125221268779    5.36657726250629    6.31406085561764
Br        3.97036507336318    6.09301609019445    3.87096323269136
C         6.76241232068472    5.27737046446189    5.44811465299941
C         7.31200150036243    6.14482663819284    4.50854055578261
H         6.79601699733031    7.06145468016555    4.26446093033490
C         8.50370821327780    5.84585624821687    3.87574590967466
H         8.91190223385622    6.53206639725504    3.14856516808977
C         9.17003714027758    4.66800401836882    4.17065873873122
H        10.09921659916838    4.42966928270792    3.67398473262749
C         8.63897661478863    3.79759170953492    5.10644398517017
H         9.15230453449458    2.87717816028890    5.34572485122225
C         7.44817426706707    4.10455046593745    5.74006414936814
H         7.05000305354434    3.42083355149114    6.47563697142238
C         5.41987175167733    7.55092650120528    6.86150999403416
C         4.36468980852468    8.45636397947646    6.77845339181038
C         4.60538547379777    9.81163007557717    6.97884527367577
H         3.80950898979325   10.53470580850480    6.88205650998577
C         5.87968030953442   10.25114015115850    7.29025534946974
H         6.05999639491105   11.30546041040860    7.44249001584268
C         6.92145857013839    9.34516507363894    7.40829952417233
H         7.91367460224999    9.69002675859067    7.65960294648342
C         6.69053429983399    8.00103498270861    7.18053202201577
H         7.50493490438173    7.29363397617011    7.23722455306030
C         5.14546604333011    4.45252521018571    7.78629323424599
C         4.44767725410119    3.26903816354950    7.53485729177170
C         4.62157642383768    2.18296118688869    8.38355800151765
H         4.13066919345239    1.24345814331337    8.18390118062652
C         5.44727758061226    2.29214609820072    9.48969643463613
H         5.57653857954641    1.44352196366850   10.14585866280057
C         6.10533006549015    3.48118319109791    9.75883395261952
H         6.73730188637582    3.56472291429271   10.63075509095965
C         5.96911825869992    4.55312466853265    8.89404820509911
H         6.50498512000138    5.47318136879708    9.07735715743612
C         2.50534575207140    9.34283671708626    4.24650453964795
H         2.07354434591526   10.22871125313693    3.78345001980671
H         2.37969525833918    8.50814222179847    3.56136104296112
H         3.57281327673844    9.51130403728440    4.38497730703102
C         1.80765167073406    9.05927994047281    5.57387282353449
H         1.86131053621200    9.95489485666387    6.20624186877397
C         0.34311318605849    8.70287966650930    5.34791671108318
H        -0.16741242129133    9.53661686385355    4.86807202870971
H        -0.16681386415130    8.48019139387487    6.28321625664710
H         0.25645298873929    7.83552714968908    4.69766475891917
C         2.04237804460721    9.19569918864712    8.89524777595054
H         1.59729767840554    9.12293742192050    9.88691430118789
H         1.47071465721244    9.92917068984500    8.33163200752979
H         3.06447029741718    9.55212553133113    9.01164638589240
C         2.01023827909484    7.82198172058313    8.23822174100407
H         0.96618940680288    7.49940337680337    8.14123313450802
C         2.75508562686684    6.80523645471542    9.10096906039698
H         2.30657600575199    6.74550575668702   10.09119912689422
H         3.80255006957468    7.08595358168651    9.21378215457518
H         2.71344297364762    5.80810327225518    8.65654845253872
C         3.43524578845685    2.45887466374860    3.47889156806064
H         4.05354761317770    2.26263317660556    2.60516196167960
H         2.88594368839951    3.38244025864496    3.29922778407204
H         2.71628321927151    1.64925572324660    3.57756865942703
C         4.31331286820042    2.59077111858512    4.72143323649882
H         5.06162770830178    3.37071940191758    4.51802451232084
C         5.07684413782820    1.31088493230050    5.04126413277464
H         5.80846204382790    1.13255063042579    4.25416469007693
H         4.42281073442859    0.44626921951721    5.09066243363066
H         5.61366454084011    1.39731236328079    5.98431825417734
C         1.43423756108648    2.45865247549494    7.96737748284661
H         0.39643084847490    2.15360577684060    8.08329923077360
H         1.49586799138384    3.51316118909073    8.22767105690027
H         2.03802396497944    1.90111992802930    8.67897097215123
C         1.88811097217201    2.20464661768390    6.52660471430250
H         1.09537070719878    2.57133035147616    5.85753779338101
C         2.03155844051184    0.70460772576147    6.28343265815907
H         1.10828925528015    0.22043313672033    6.60158070961318
H         2.84684316257949    0.26716258628279    6.85378333418679
H         2.17625855615721    0.47412646636449    5.23196024917930

