144
CSD_code = IQOMIK | q = 0 | S = 0 | Stoichiometry = C66H69FeN7O | MND = 6
Fe        8.07466664207701    8.90603637695286    4.72572416658700
O         7.91653977880818    6.42585551153862    2.06344985513530
N         8.28688343696333    5.93364862792390    4.75446480018930
N         6.17368151033187    5.18057954269245    5.31383928172238
N         5.38723032573546    7.77816351634972    5.43055552815185
N         9.42842345426985    8.01855702876099    7.22074577282988
N         6.96900817020667   11.29401252014056    6.11609931050644
N        10.27359454594286   10.81954869871884    4.07445938051321
N         6.78004477133574    9.30169739505871    2.05970447677043
C         9.88631385467984    7.69004460162818    1.81597180141014
C        11.19677326949062    7.90394998800302    2.23435771510617
C        12.12560203469911    8.46251409975003    1.37452540753450
C        11.76209371155101    8.82523883602981    0.08807386625626
C        10.45874462236961    8.62814967417366   -0.33652669340272
C         9.53606517920913    8.05690007904179    0.51784277187284
C         8.84244468808760    6.98982706463808    2.63997850836202
C         8.97302868272066    7.02512757586939    4.10163442527082
C         6.97894937768229    6.13467229043809    5.04052376267267
C         4.83415618849934    5.29096768738836    5.60062492854741
C         3.89412977329041    5.27614402016249    4.55534412349549
C         2.54615569472250    5.29783050735466    4.86300795115935
C         2.10962027031334    5.30681690172315    6.17662490075286
C         3.03709183733628    5.25716934150995    7.20165274946153
C         4.39365719640607    5.23373254825658    6.93211635505975
C         5.40167507900296    5.12620321585167    8.03964125554024
C         4.35693325549355    5.19687471716114    3.13039583366451
C         8.86187086367450    4.57777269123931    4.76693819229737
C        10.34653759916081    4.59582385245873    4.39147778848121
C         8.12100890143530    3.67281209482746    3.77556405311462
C         8.73604782781184    4.02518639147635    6.19212551555858
C         6.57991997396123    7.57929108864687    5.10999353331764
C         4.64813246836157    8.90122458291313    5.66084983959595
C         4.59461456372030    9.43423626278661    6.96161230232010
C         3.78741926419910   10.52714168903925    7.21552265022048
C         3.01304298433535   11.08998075025986    6.21510250498210
C         3.03478806192824   10.53590716784241    4.94849484269467
C         3.83607628261695    9.44358796199564    4.65381141263534
C         3.78808816552583    8.83063210042904    3.28684751585991
C         5.37877513861597    8.78781297005294    8.06241120820505
C         8.84644664373099    8.39635049423288    6.26926525221855
C        10.35468080065919    7.60283681254295    8.12395937148686
C         9.92480619302815    7.21504347701167    9.40137352654770
C        10.87202502247917    6.78516609955522   10.31438331813622
C        12.21408823953275    6.73980292458118    9.97574705589878
C        12.62316527904255    7.12777405898810    8.71355596557441
C        11.70950755291904    7.56607711937696    7.76557754357260
C        12.18667319457672    7.96769208375558    6.40155495447967
C         8.47047905676902    7.26972437721120    9.74599422319314
C         7.24682017274609   10.31075462186620    5.53456811519087
C         6.53102533342516   12.31230008424131    6.89628277636996
C         6.89661749491839   12.35750721091577    8.24766327504504
C         6.39973198819371   13.39408076461126    9.02417631859721
C         5.57463535380034   14.36131007438055    8.48136747380926
C         5.24393792155047   14.31584137110866    7.13678753232275
C         5.71670153867803   13.30139520666346    6.32447412542238
C         5.39136050671893   13.24137340419352    4.86612573629854
C         7.81388504137077   11.33817664206788    8.85361708311894
C         9.46976636045876    9.98452367266222    4.27743951371800
C        11.18768905563000   11.82214869737290    4.13011021200354
C        11.55276637385773   12.31883605610793    5.39278920360720
C        12.49924763317274   13.32667338360374    5.45141796274376
C        13.06875304856579   13.83588853156555    4.29569110534778
C        12.68245129108088   13.35018802570255    3.06036202436132
C        11.73535770024313   12.34184311426020    2.95283917498257
C        11.29605576141745   11.85326835935479    1.60765353418090
C        10.91466514191761   11.76789080032380    6.62975411055595
C         7.25777612569679    9.13976419403445    3.11807334224212
C         6.43961242614181    9.74632548822528    0.82277303367295
C         6.73688914872280   11.08145962826961    0.50842694733360
C         6.42492412396368   11.54466160596002   -0.75735282549892
C         5.83565615344968   10.70689674263300   -1.69010089163153
C         5.54690430785355    9.39498034463935   -1.36204697257449
C         5.83685214371751    8.88686927334932   -0.10314480800067
C         5.50681340914729    7.47425478134037    0.25281737714141
C         7.37207703477890   11.95835292311082    1.54147027557987
H        11.51726354986159    7.61652798258771    3.22383309965911
H        13.14213250534064    8.61116448495256    1.71004121046991
H        12.49339463287182    9.25431385398963   -0.58139263302818
H        10.16408085043058    8.90898193492281   -1.33714275127102
H         8.52669058926724    7.87151745442112    0.18421120181219
H        10.01679964284411    7.04405478871697    4.41345830753447
H         1.82262315042115    5.30361580335934    4.05832555819661
H         1.05288754093306    5.33600679600075    6.39954822351698
H         2.70199432937192    5.23338391039278    8.23036736119522
H         4.96317663017679    5.39862406529911    8.99802248944857
H         6.25682006489170    5.76931678255188    7.83686936769399
H         5.76890728190754    4.10078847771173    8.11298090495067
H         3.58675952254795    5.56021825062425    2.45307774093595
H         4.57507244887017    4.15942266842231    2.87043809430263
H         5.27154635444291    5.76500733072212    2.97649928619528
H        10.49847706733940    4.97730315227831    3.38414243644587
H        10.72333680519720    3.57591345247244    4.42394670360011
H        10.92818349784231    5.18628456482140    5.09747469794117
H         7.08304244464299    3.57388245955872    4.07566889148225
H         8.58230069353372    2.68846167693471    3.75003072294726
H         8.15339908578304    4.10810582262468    2.78024353303340
H         9.18554108177629    3.03730667469899    6.25023748946688
H         7.68872754004780    3.95211617169856    6.46466508751259
H         9.24305025845293    4.68156547694292    6.89852252057178
H         3.76238278937230   10.94536499058758    8.21253226763449
H         2.39234274017745   11.94805158749711    6.42626628463200
H         2.41569156842528   10.95387960666480    4.16608689288060
H         4.61053229080386    8.13685778942528    3.15032252761332
H         3.82866183137787    9.59849102309993    2.51399620502785
H         2.85475897448930    8.27903924915063    3.16859968880825
H         6.39771778442070    8.58021022651068    7.74043412429177
H         4.91283653901292    7.83929215806861    8.32531834371451
H         5.39944003612440    9.42368334822154    8.94437397291778
H        10.55448187886145    6.48076309900226   11.30056845753582
H        12.94167472597836    6.40116972000239   10.69750888131625
H        13.67021834049066    7.09218301396162    8.45023743663782
H        12.48862274425164    7.08263599717334    5.83918408371139
H        13.05826660347007    8.61613444179172    6.48211179988312
H        11.41359907139069    8.48706018036447    5.83807976250300
H         8.10355770401659    8.29461647315255    9.69624187317500
H         8.29744113203948    6.88541165609190   10.74736258382585
H         7.88899767048720    6.67789539516707    9.03991921304073
H         6.66635887645841   13.43694528827458   10.07030491646189
H         5.19205363480713   15.15551538443475    9.10439462391061
H         4.60767610777870   15.07855315957344    6.71282312390476
H         4.96776505724332   12.26935233501913    4.61352831735260
H         6.29828395452888   13.38119655565335    4.27609767030587
H         4.67883877454848   14.01681395609487    4.59845085894993
H         7.95871361432603   10.49022809205438    8.18889209752409
H         7.41055899651660   10.98448737183669    9.80093260193522
H         8.78735800608489   11.78655829901472    9.05586127812600
H        12.79265381384570   13.71908160213837    6.41401034236956
H        13.80937233572396   14.61844856917889    4.36056815646189
H        13.11727826161612   13.75711907956237    2.15936484791166
H        10.77330601507297   10.90287658775060    1.68119938919880
H        12.15268541097091   11.73039011557618    0.94870462850694
H        10.62603451646829   12.58134492932517    1.14911379959219
H        11.16682282937778   12.37878178735646    7.49258183535980
H        11.25256802730132   10.74880390232677    6.81721515985719
H         9.83098399696004   11.73567261169482    6.51794833054160
H         6.64724808250839   12.56972618667059   -1.01590226026852
H         5.60113699063514   11.08052705708247   -2.67559430467230
H         5.08698301655602    8.74697764393439   -2.09365241649419
H         6.27688250719752    7.03250841561668    0.88383412283852
H         5.39408863866348    6.87032092570533   -0.64431718977391
H         4.56812243517325    7.44013855102046    0.80551007007882
H         8.31284476243608   11.52689490216454    1.88318342809438
H         6.72250822074766   12.04205480564233    2.41290166285735
H         7.55916710192888   12.95235347169608    1.14340140382543

