35
CSD_code = IQUBUR | q = 0 | S = 0 | Stoichiometry = C10H10CdN4O10 | MND = 6
Cd        1.29539596421298   11.51780579603460    3.09603921407189
O         2.52969404210729   11.89705337557812    1.40194358631685
O         3.19410795989635   13.55548676517883    0.07946925808399
O         2.77499421573627   16.08732022870382   -0.20491766163583
O         1.40719464715270   17.55540041671323    0.75898583459158
O         2.51979678082851   12.53998721336178    4.94863004681351
N         0.68156370732368   13.52857450380312    2.63831643064581
N         0.29469433179379   15.66478324968583    2.40579973662946
C         2.50881402540171   13.08886787989513    0.99405795374515
C         1.52460154250091   14.00904229799882    1.67704763456957
C         1.28677637673053   15.35847512200666    1.51555438718681
C         1.84524593653501   16.43450758084240    0.64141689347607
C        -0.03784875262708   14.54352862226248    3.06065767938124
H         3.01886280095108   15.09431396303294   -0.17037223943077
H        -0.07394059813572   16.60146601727624    2.50501787093429
H         3.24836449917957   12.12180370573479    5.42145977741842
H         1.73604780082341   12.45874308619160    5.51260775960602
H        -0.79379877070813   14.48028061619557    3.82071765350286
O         0.06362867649189   11.14088806333245    4.79216649914461
C         0.08256045579272    9.94900623288857    5.19995236536680
O        -0.60414815421291    9.48315906164918    6.11383153479667
C         1.06574197637623    9.02751824806112    4.51720814771849
N         1.90850861284556    9.50652196299091    3.55496209460685
O         0.08027350230548   10.49271189434673    1.23794957864150
H        -0.64544997431420   10.90889687723795    0.75902030142835
H         0.86825942717819   10.57566144127402    0.68001688756296
C         2.62758993386630    8.49085782796529    3.13379399804194
N         2.29509998843154    7.37054807316472    3.79030892244485
C         1.30330057751257    7.67824367882149    4.68038570318265
C         0.74464104619724    6.60338824958849    5.55585840435340
O        -0.18568966816744    6.95158696175404    6.40109850575331
H        -0.42969048464840    7.94450151486220    6.36506360423895
O         1.18329648017208    5.48249589342240    5.44043418436431
H         2.66360739586300    6.43368894803463    3.69231581981618
H         3.38330369861030    8.55288463011062    2.37340163263410

