78
CSD_code = IQUCEC | q = 1 | S = 0 | Stoichiometry = C36H37ClP3Pt(1+) | MND = 4
Pt        1.82352896332003    8.37247423213259    6.78463861947099
Cl        1.28065509151438    6.38216315576249    5.74297851484901
P         2.38430802555952   10.34014969113796    7.79184077313773
P         1.07135651472500    9.45451044376981    4.89675018438582
P         2.72995185620203    7.13772232179514    8.50786999841215
C         1.40482194711175   11.84003845398673    7.38225708560665
H         0.40217656318118   11.71723061899148    7.80385120444752
H         1.87950444174554   12.69020121714145    7.88262269972608
C         1.32362111731817   12.10811586041965    5.87949906711517
H         0.95728213371278   13.12748251967553    5.73149737107047
H         2.32908474929327   12.05125144038653    5.45030406750532
C         0.38690638390232   11.14679572310218    5.14755554924833
H         0.12621238323222   11.54149653863763    4.16040732882906
H        -0.54990175756588   11.03349470590974    5.70365708170729
C         2.38511354381743   10.38923400550089    9.62886119239938
H         2.72188567787633   11.38563955529122    9.93267724962293
H         1.35530944684151   10.25988885659190    9.97603318275649
C         3.29668388654070    9.32813739242412   10.24508710542312
H         4.26756522879083    9.35841435482899    9.74102935555288
H         3.46043233259317    9.58179812960612   11.29589966740345
C         2.71061859230329    7.91762381167225   10.17768378786615
H         1.66562997308048    7.92976071663021   10.50618440550836
H         3.25023167972416    7.24527715818718   10.85256549929042
C         4.08770068892552   10.74362377404592    7.32423363540724
C         4.74344127763772   11.89072106263273    7.76068321206871
H         4.24003934324192   12.60010406744187    8.40217241793087
C         6.04989148576696   12.12314320771921    7.37135514590004
H         6.55923262504309   13.01258353700367    7.70947670931818
C         6.70682154092348   11.21850784099101    6.55077887028325
H         7.72640662076707   11.40751399823611    6.25274492158852
C         6.05761960740526   10.07488939804449    6.11451639861480
H         6.56529251463035    9.36768288664013    5.47702223288602
C         4.75196733749417    9.83956482259897    6.50069190874768
H         4.23015773483202    8.94544755891128    6.16609349393888
C         2.44613349187143    9.62687774912125    3.72833864997419
C         2.69930825673202   10.76420993141165    2.96861559325471
H         2.04754069016224   11.62325919715478    3.02233815996172
C         3.79459785444168   10.79574403218455    2.12260977804733
H         3.98696233090739   11.67930492333248    1.53295332190877
C         4.63913117507573    9.70201791530000    2.02677435311319
H         5.49110641433935    9.73658521129589    1.36530728453998
C         4.38458672185490    8.56249529706048    2.77354623166577
H         5.03421001201336    7.70428921514824    2.69172595059728
C         3.29469770414906    8.52500355669364    3.62165771910064
H         3.07537752260212    7.63425572748069    4.19790238406549
C        -0.28131097813501    8.66139953868677    3.99793024658845
C        -1.34369366802943    8.17022773022377    4.75139230808862
H        -1.30825447449086    8.24967244620690    5.83265986833341
C        -2.41385859882136    7.56656866383714    4.12126222413988
H        -3.23690786780506    7.17913460291678    4.70238121914195
C        -2.42315764727298    7.45059984151283    2.73916729418839
H        -3.25550508638224    6.97199739140709    2.24641706215737
C        -1.36361522823762    7.93465365459579    1.98980214047859
H        -1.37110352834232    7.83416222004681    0.91508833015701
C        -0.28729178159255    8.54069958897178    2.61430800339467
H         0.54730748050156    8.90906666497781    2.03417273395070
C         4.45971198890263    6.74307210642495    8.13562925438843
C         4.70451417513834    6.25152461863008    6.85270387081383
H         3.86942907566821    6.09273768844891    6.18222988604388
C         5.99266370599393    5.95065938621548    6.45490035335126
H         6.17426614971661    5.56318835765604    5.46382806253930
C         7.04934663006845    6.14443515626345    7.33109378868244
H         8.05764482637932    5.91483304691437    7.02234821448786
C         6.81045791696036    6.62525620544886    8.60759549770233
H         7.63175987257315    6.76593671719596    9.29391854592495
C         5.52148332620832    6.92475056623994    9.01494216389872
H         5.35601049432128    7.28703012327634   10.01815641946479
C         1.90771740615521    5.56746544274632    8.86072248881213
C         0.51581223271256    5.56929817159615    8.87023070850003
H        -0.01421726300016    6.48540703495883    8.63078499843600
C        -0.17278999855682    4.40696027285394    9.15556042221014
H        -1.25226672144048    4.40288365776730    9.15752598732980
C         0.52757574192811    3.24159234374465    9.42919186659257
H        -0.00952005234434    2.33095786952716    9.64577253505106
C         1.91268837857435    3.23864862502518    9.41589956853973
H         2.45326441612382    2.32756375370030    9.62285735777668
C         2.60969092348553    4.40008097645665    9.13128804669348
H         3.69064642740249    4.40000972154358    9.10974916791504

