62
CSD_code = IQUDEE | q = 1 | S = 0 | Stoichiometry = C26H22N13Zn(1+) | MND = 5
Zn        6.20308341570859   11.77209385768614    2.15970535041977
N         7.39415776321723   10.16563889626521    1.45221158052462
N         7.74310999925819   12.76456834674940    1.20811196816254
N         8.12554618535243   14.03655623344868    1.21815771211158
N        11.52772191476470   15.24102682209264    1.33701924619401
N         9.92484806126291   12.78482403666644    1.31269791216216
C         7.10690879094993    8.87374003475670    1.48951948569757
H         6.06186935176743    8.63566809129262    1.62910512487052
C         8.07333165359942    7.88826210090524    1.36359570260121
H         7.79891429240566    6.84686352660903    1.40276557459736
C         9.39222811876633    8.27529421998046    1.18912170690314
H        10.17539923467554    7.53983379639699    1.08856311348330
C         9.69978781448023    9.62490397506337    1.14547296451813
H        10.71827849695140    9.93725182844802    1.00187367627859
C         8.67118531540664   10.55275097744137    1.28767092941883
C         8.82325202195721   11.99646069300190    1.26355059714590
C         9.43989310816255   14.06201853358576    1.28258243783459
C        10.19811354048464   15.30396710825385    1.30433192101634
C         9.50783750221769   16.51781693210117    1.28129274969704
H         8.43116257114650   16.51619156088421    1.24909462948945
C        10.23927413572128   17.69226027629965    1.29541447635046
H         9.73844080985271   18.64836523229777    1.27716927749076
C        11.62397485140608   17.62143242117784    1.33290833254946
H        12.22974835600225   18.51286403221120    1.34457505720177
C        12.21544340619262   16.36618534353087    1.35291183510505
H        13.28995926650352   16.24932608026835    1.38072308022525
C        11.28521521568657   12.37800631335789    1.53249186195152
H        11.87588770818279   13.27717445114961    1.70675708328638
H        11.67655851409108   11.86394146128507    0.65404828453971
H        11.31953601958022   11.72753642090177    2.40832274133158
N         4.84459775416852   13.38637889155788    2.10804537148258
N         4.42071065743471   10.79240626229977    2.07257478659793
N         4.01920207910335    9.53247011573874    2.08646312918160
N         0.62960387361604    8.37093618084176    2.53984371191503
N         2.27479041998061   10.81111677516650    2.45093499617162
C         5.16758638475962   14.66710191103881    2.08967857526899
H         6.20942970233367   14.88140909016235    1.89461401278823
C         4.23412179981879   15.67512266504844    2.29309168243464
H         4.53541841544430   16.70950113121396    2.27196341553026
C         2.91815580707516   15.31655125412047    2.52560651636279
H         2.16145867473012   16.06726129305149    2.69462103013207
C         2.57454118743609   13.97243441167085    2.53823489301818
H         1.55259055869055   13.68954923469441    2.71646926610972
C         3.57008901613301   13.02321314090874    2.32295392023132
C         3.38242134681172   11.58199613291423    2.29430249733193
C         2.72291972510515    9.52536322323431    2.31503824825879
C         1.95210313693301    8.29340769809951    2.39839444020732
C         2.62635386978989    7.07278743964482    2.32331161622024
H         3.69779620328688    7.06366116071116    2.21373427511319
C         1.88598269652519    5.90589768901506    2.39744160349868
H         2.37453710201101    4.94482861487379    2.34361335687769
C         0.50931699447022    5.99144664032314    2.54222701738216
H        -0.10308354751810    5.10666285429199    2.60315151506163
C        -0.06643716054752    7.25261537750522    2.60941642706403
H        -1.13418030154012    7.38035995818700    2.72462428477580
C         0.92125876642836   11.22299939936532    2.70969109471429
H         0.30952615667027   10.32045636632901    2.76269485317633
H         0.56023025501649   11.85647711822317    1.89877921993020
H         0.86638225020437   11.75890390642726    3.65792384228289
N         6.94691447171950   11.78102809607813    3.86981352254452
N         8.10201972243851   11.63027249408750    3.98917130905358
N         9.22177454571607   11.48795986906479    4.09050915608904

