34
CSD_code = IQUFEF | q = 0 | S = 0 | Stoichiometry = C13H14N4NiOS | MND = 4
Ni        3.83450055494002    5.37490541106965    2.79615582543880
S         1.95109362898880    4.33745376883244    3.19355201530302
O         5.42016904514649    6.26671381395746    2.47017695573286
N         4.11205766951538    4.21879417820809    1.37954851934466
N         3.18947510573429    3.26049140630617    1.09994010465788
N         1.17620293817206    2.30950321240835    1.70512980847018
H         0.39345523365629    2.35652941973064    2.33697916085026
N         3.53368966185475    6.63183548241361    4.33715257741361
H         3.43579998823036    6.12602102269144    5.21612744990991
H         2.68937464895957    7.18374922727665    4.19203668547860
H         4.33711453696309    7.25662151091183    4.39559633193901
C         6.26892340414028    5.07025333429218    0.59388115941767
C         6.33265101263637    6.08622959306956    1.58199080925991
C         7.46181186686145    6.95898909915819    1.60368627551504
H         7.47896186840095    7.72459441896287    2.36542381299041
C         8.46727517306757    6.82856534133425    0.70596825897524
H         9.31573445294993    7.49798879706408    0.73643388181464
C         9.49804996306345    5.70171560110937   -1.20963954742682
H        10.32646066098898    6.39231747557905   -1.13383002172714
C         9.48688892489451    4.73348730296628   -2.17773995762630
H        10.30350867662447    4.64493343214670   -2.87884372165195
C         8.40483401956577    3.85377193054513   -2.25084689368265
H         8.39106832602035    3.08846843468808   -3.01362704471265
C         7.36053023944338    3.95094383933876   -1.36646314461507
H         6.54621280742323    3.25002348975498   -1.46157551161749
C         7.33773369292599    4.93192455782416   -0.35790567712375
C         8.44059946387278    5.82113622322813   -0.29207725898159
C         5.14648036416801    4.21244282910026    0.57368878793785
H         5.09732579444867    3.44090892047673   -0.18753813816691
C         2.15111490315913    3.21943440405954    1.87336807462263
C         1.16170883575694    1.33042060264239    0.65171864411430
H         2.08515693130944    1.43482107247375    0.08825775686008
H         0.31052632027898    1.48962143304377   -0.01521361273257
H         1.10120928584002    0.32198941333624    1.06748763401841

