40
CSD_code = IQUFEG | q = 0 | S = 0 | Stoichiometry = C13H22ClNRuS2 | MND = 9
Ru        7.57759442847529    1.77205032957457   11.44736105191543
C         9.63673008639388    2.43802673999729   11.19920731290743
H         9.91938221966606    3.06955942307760   10.36068537438776
H         9.96920991145017    2.81505106157212   12.16995976683441
C         9.56914654525684    1.04688502598522   10.98563414481240
C         9.90520949566970    0.41394198422772    9.66788968319929
H        10.05865983313439    1.17503944180487    8.90765207074788
H         9.12349371854308   -0.25652586046257    9.32083160414927
H        10.82745678194992   -0.15780766108030    9.78905668238962
C         9.07656011548773    0.32479903941214   12.10378865373005
H         9.42413732159411    0.66157101812666   13.08405376795699
C         8.79776051333988   -1.16423587411513   12.05183571769836
H         8.66932615423013   -1.53194186147832   13.07135143278075
H         9.66567199084236   -1.68068050773151   11.63025861037665
C         7.53855651440972   -1.46936366963094   11.21536837985202
H         7.82123214598876   -1.91106332162621   10.25910692416542
H         6.90982505539831   -2.19854484141133   11.73522386924185
C         6.74100973688511   -0.20816201173588   10.95573974436889
H         6.39531081539652   -0.10123636553668    9.92599230138457
C         5.96064226176861    0.41231875960744   11.95637860391632
C         5.78909857142024   -0.15841165739026   13.33620156260353
H         5.16748643789282   -1.05225399186903   13.26194947237221
H         5.29332616193723    0.55437210268669   13.99135228259825
H         6.73672591409208   -0.43886689110968   13.79043960584796
C         5.41647835860746    1.66120806644916   11.58118296089430
H         4.85297238505741    2.21416821614252   12.33309076933825
H         5.03948147206116    1.79405401703307   10.56650818350701
C         7.26216738551370    4.04764395905990   13.32919189667517
C         6.82638575433285    6.40950133996096   13.69357473788461
H         6.81046493159650    6.41932300247757   12.60649686707811
H         7.59943246202414    7.09381281143381   14.04940161224041
H         5.85775290945326    6.74468902332714   14.07114436509408
C         7.18434218826522    4.93054972768315   15.59488714931317
H         7.40423127443053    3.89570769941854   15.84712151808328
H         6.23613916595124    5.21937192672113   16.05375760263352
H         7.97542212531405    5.57281081102365   15.98795376647077
N         7.10198990322144    5.07504890019797   14.16325643713277
Cl        7.31792212062412    2.11648910553860    9.10260574734745
S         7.16542334205429    4.21130019990696   11.63969260556832
S         7.58984149026821    2.47210078272521   13.88131516048768

