85
CSD_code = IQUGAD | q = 0 | S = 0 | Stoichiometry = C43H34N2NiO5 | MND = 6
Ni        1.98452185623139    4.24396046632524    3.23027088167847
N         0.37395586200334    4.24220761809547    2.38346744345584
N         2.55235589631086    3.18608438805185    1.21179724285776
O         1.74232404137942    2.35591145996179    3.84314553224415
O         1.11870278426017    4.54123405254564    5.34311369604892
O         2.12858907300140    6.16921860119507    2.86249533939812
O         3.62583230747765    4.24859849999724    4.05774554770023
O         7.17016502676082    0.53088233816722   -0.26220139405368
C        -0.68948244527852    4.79604119422074    2.94912969618855
H        -0.55896010097397    5.13856993084118    3.96826188845640
C        -1.90608575127896    4.91581836070547    2.29640679119860
H        -2.74463819292997    5.37218296652533    2.79784304583928
C        -2.02447405526667    4.43461848572408    0.99985343058966
H        -2.95837854085837    4.51060281618126    0.46358684865482
C        -0.91997819659020    3.84794224948937    0.41298365706501
H        -0.96637520431248    3.45554466318239   -0.59161414250692
C         0.27622613074114    3.76675160894662    1.12811327739716
C         1.45365425772971    3.13797041440093    0.56355203688705
H         1.33267103840220    2.60167737580931   -0.38207059989609
C         3.70522724690122    2.55493512365101    0.79748837757931
C         4.05510300667348    2.33492511355013   -0.54103995428815
H         3.43167822139616    2.71705621432997   -1.33603050374738
C         5.22192418043297    1.67635512475085   -0.85027827277538
H         5.51365510108010    1.51301708755055   -1.87606257811229
C         6.06226348570384    1.19318011454305    0.15872311532528
C         5.72640331037627    1.42422189077045    1.49151317464896
H         6.35376644620445    1.07037194956253    2.29433937033489
C         4.57397359931105    2.11513952011754    1.79795367515640
H         4.29492719232024    2.30226875704203    2.82225747652298
C         2.93252572365095    6.95413309131435    3.43580964026838
C         3.94522420237596    6.57669282924422    4.32728632785120
H         4.53170694691637    7.33474670742947    4.81702083472319
C         4.20906188262920    5.23095867902904    4.59545686771527
C         1.70138502841623    3.93070977990776    6.26731254131486
C         2.21668477526953    2.61738335608728    6.15237544535699
H         2.71666920019778    2.18039350459468    7.00001928278884
C         2.31461148476309    1.97998051798056    4.91627863655300
C         3.19487122983101    0.77855260883293    4.79308344130603
C         2.91237139015073   -0.15170787128666    3.79491537118307
H         2.03488608239935    0.00218880769332    3.18462019695526
C         3.74009765434382   -1.23752801890003    3.58557205786960
H         3.50674578888836   -1.95399470692247    2.81070791583456
C         4.87375741363908   -1.40413202900353    4.36440102373206
H         5.52630484595911   -2.25034420568148    4.20076107529851
C         5.17146011868130   -0.47768755523844    5.34992569659736
H         6.06133178881131   -0.59856106759304    5.95211670540475
C         4.33979300934357    0.60688054934059    5.56565721110443
H         4.60052241509065    1.33685284532172    6.31738113651322
C         1.97386309315254    4.67932239281594    7.53055531288972
C         2.11204221323976    4.06979616216787    8.77349212822113
H         1.98731445865768    3.00169767203968    8.87083132472527
C         2.38172582111556    4.82949954545423    9.89750721073846
H         2.48321610788606    4.34712645450419   10.85950939818315
C         2.52078522415009    6.20392849749356    9.79789309978495
H         2.73854860938203    6.79174079294497   10.67821463882675
C         2.36907135207245    6.82212710517668    8.56752777187220
H         2.46596138188446    7.89594246784295    8.48539613237351
C         2.09095558831167    6.06547042899637    7.44596011871169
H         1.96646913800316    6.53263477193322    6.47920915289175
C         5.26895015643212    4.87869474171984    5.57952376920686
C         6.03298571881828    3.73422650979369    5.36862434168738
H         5.87822659968924    3.16092272729347    4.46687604874552
C         6.97590696782455    3.34171325398325    6.29943636845613
H         7.56825107722735    2.45503848323455    6.12450256772748
C         7.15272499163012    4.07727660374349    7.45994962240140
H         7.88182841768409    3.76531182739557    8.19352143285239
C         6.38635875861786    5.20951186274471    7.68143249328596
H         6.51142027594450    5.77716583226502    8.59185368129574
C         5.45205771043836    5.61456200233464    6.74558622165740
H         4.84096689388012    6.48262442128158    6.93800256536484
C         2.74572115539435    8.40487052042985    3.15648269615182
C         3.81163316755123    9.29793757906712    3.10622802243221
H         4.82112239447174    8.94287128496874    3.25036469332811
C         3.58400679110264   10.63644165836264    2.84254925920070
H         4.41660210174723   11.32368462425275    2.79932333636363
C         2.29501975801357   11.09810630594675    2.63142309586409
H         2.12207520632190   12.14546244449157    2.43130622370728
C         1.23027550557839   10.21275802769572    2.67093885161723
H         0.22437317453848   10.56893595507106    2.50192421740911
C         1.45478302621501    8.87301758600458    2.92409774049017
H         0.63598866939103    8.16925249136165    2.95433661064594
C         8.05802796694672    0.02116949636467    0.70430958286690
H         8.49166327260773    0.82150497105443    1.31208967642702
H         8.84938741149680   -0.47474115239589    0.14448006297894
H         7.56493128398250   -0.70521255822018    1.35789502040216

