63
CSD_code = IQUHAD | q = 0 | S = 0 | Stoichiometry = C32H27ClP2Pt | MND = 4
Pt        5.88393719212739    3.33837583736292   16.06742681817127
P         4.89897534015239    4.12031225689673   17.93133303374706
P         7.09216556331969    2.16238457768921   14.56458312011703
Cl        4.95316742616991    4.96127596669628   14.63441040133403
C         6.69513743950773    2.00128782794159   17.37249638281487
C         7.34798995840015    0.85093623561606   16.91319183930471
C         7.91483072007906   -0.04399723177695   17.81014514381576
H         8.42030300937710   -0.92565144802658   17.44021549591205
C         7.83033172613389    0.18060306212423   19.17206395195274
H         8.26688562004216   -0.52246003631485   19.86590804801063
C         7.18584956346780    1.31035748804845   19.64145880923223
H         7.12018720913651    1.49069187039675   20.70578520055556
C         6.62943264599020    2.22164032507022   18.75440880869434
C         7.41068047000249    0.56850971970016   15.43269404788396
H         6.61070927949226   -0.12977723944917   15.15713400235427
H         8.37149420214825    0.12944684619723   15.14723304175698
C         5.97627433924261    3.47535237918948   19.28204154610366
H         6.74107765808219    4.22551571465457   19.51210736157617
H         5.40413186792822    3.28582095167050   20.19497164161109
C         6.73837919595282    1.75067922574151   12.83284325883661
C         7.04689781419452    0.52391567665548   12.25448991219672
H         7.49510297339707   -0.26341056419915   12.84412743275884
C         6.77368394118171    0.30850392633934   10.91523875949656
H         7.01423927500694   -0.64421953621954   10.46528899191638
C         6.19262635589102    1.30816246446366   10.15208024487679
H         5.98145017786825    1.13222296214597    9.10738583050446
C         5.87563782362747    2.52772435700646   10.72889633687803
H         5.41359286373227    3.30336231525335   10.13649882512066
C         6.14595053554425    2.75117028470646   12.06605638427376
H         5.88491919959184    3.69029681222626   12.53617095360224
C         8.73800259664587    2.92522484437823   14.47042911153996
C         8.96602473219640    4.06036911628298   15.24068647081445
H         8.14863100577735    4.45913825969178   15.84309590377846
C        10.20498977075689    4.67334392258722   15.22254405361493
H        10.38229388242291    5.55630677534302   15.81878234676302
C        11.21806769105633    4.15644842241881   14.43118712995599
H        12.18607839079477    4.63535108062078   14.41273218628244
C        10.99122171934250    3.03054686457881   13.65515777582887
H        11.78170280833694    2.63570253022388   13.03340164580024
C         9.75355488590863    2.41404135545051   13.67069255536815
H         9.57021057904483    1.54291021094662   13.05625242474184
C         4.57131159599027    5.85469639802154   18.34040640197843
C         3.28577496367018    6.38269289879450   18.38095367073083
H         2.43255149717592    5.73747621733214   18.22678344555546
C         3.10365035051676    7.73503141545135   18.60961557132610
H         2.10371047627934    8.14218815507878   18.64403809562666
C         4.19669361886841    8.56765166297985   18.78222958408093
H         4.04920951411868    9.62317175663795   18.95683106700985
C         5.48091911635689    8.05067138792811   18.71082699562660
H         6.33405932183591    8.70376646788983   18.82258008848695
C         5.66838239313868    6.70156063517160   18.48217075350525
H         6.66872748720835    6.29627882402500   18.39434778760349
C         3.34012341043364    3.23753822077537   18.19450845848377
C         2.61966629625367    3.31954946881401   19.38192673513221
H         2.96911003355979    3.95823988762320   20.18259919203945
C         1.45453448366454    2.59004881340861   19.52906559609493
H         0.89152957159013    2.65390996952245   20.44905174596236
C         1.00710603574608    1.77759129670249   18.49824107488999
H         0.09568202675171    1.21073199739630   18.61954707322548
C         1.72314709630263    1.69250872017244   17.31533745005674
H         1.37103713618127    1.05992003688981   16.51404644255641
C         2.88843518565938    2.42174358970525   17.16286615917165
H         3.46421893961792    2.37621576935449   16.23867938096049

