47
CSD_code = IQUROD | q = 0 | S = 0 | Stoichiometry = C19H14AuCl3F6N4 | MND = 2
Au        1.57529331234125    4.12804128653054    7.82332677842753
Cl        3.19612406989278    2.59052630553868    7.61210221582446
Cl        2.68897624195087    4.23516357780655   13.02083176267890
Cl        5.28974732883840    7.84393867127531    6.91806113047691
N        -0.64385718672910    5.69076701751289    9.12295061825280
N         0.09664463719836    6.71245463879252    7.38910986661132
N        -0.99057997487821    3.02356017130525   12.26243719171173
N         2.44486154634728    7.83653503957160    4.18143818275620
F        -1.09116201481386    1.34525255828738   16.28910215138657
F        -1.36291543137995   -0.18310432349569   14.80264977626595
F         0.58429236497321    0.15778773511483   15.65436208806833
F         5.75982284539695    7.65449045441251    1.23754893586121
F         4.37573862330462    9.25827961862413    0.87033403102154
F         6.17387681773647    9.62351195138435    1.99367708892791
C         0.21364235587625    5.57288379684926    8.09358884821167
C        -1.29090507403221    6.89418246579978    9.06745455862228
H        -2.02297782484752    7.18782749896260    9.79069332582588
C        -0.82302387374904    7.53971330205679    7.97209305330439
H        -1.07334500743536    8.49805849499692    7.56694221860405
C        -0.82980102721879    4.69662676289960   10.14741397166160
H        -0.91242636890873    3.71218595221808    9.68187614328519
H        -1.75490084232128    4.90523581004630   10.68582826556213
C         0.34883941922309    4.68203732504624   11.12236395933414
H         1.26682648141751    4.45213528194985   10.57055447361835
H         0.47992677350607    5.66712322022533   11.57953963459778
C         0.16530976751663    3.66233704644273   12.20152862236495
C         1.19337909242863    3.39354005777463   13.11725946832767
C         0.99496084719717    2.44128689638744   14.10268382944167
H         1.77073908332748    2.21071817862647   14.81684353398758
C        -0.23031771961065    1.78479883437417   14.13910790113539
C        -1.19483125146665    2.11333295330432   13.19458248370142
H        -2.16052718688271    1.62806424909444   13.18170229338054
C        -0.51906105131921    0.77259194926894   15.21168188645460
C         0.85395531370894    7.02096343647837    6.20450147718621
H         0.37875233149799    7.85146790097860    5.68136995232755
H         0.85874931858217    6.15085187271296    5.54455644848482
C         2.29919116116583    7.38347592428172    6.55110013517894
H         2.32519681490671    8.22256551350441    7.25253198327937
H         2.77510815077093    6.52929820454895    7.04466201169051
C         3.08891834470745    7.74191413625087    5.33198435633925
C         4.47071590869266    7.97054425365103    5.41212308351956
C         5.17285048972341    8.29924073807747    4.26506291988697
H         6.23617572480329    8.48190243074578    4.29743691335764
C         4.46640950811561    8.39456181830264    3.07061896197047
C         3.09941750997042    8.14862949873565    3.07976904855197
H         2.50815630869153    8.20950172376603    2.17711514728540
C         5.18873334179990    8.73439776896038    1.79719727123664

