85
CSD_code = IRAFIQ | q = 0 | S = 0 | Stoichiometry = C40H34MoO4P2S4 | MND = 6
Mo        7.89680044750676    4.57196180487824    9.09228371337980
C         8.42101814256195    5.79724801715670   10.50333068540869
O         8.69629547421486    6.46086313038759   11.39436823151658
C         6.15559931923774    5.46278995582078    9.13085272586472
O         5.17108178647750    6.03438821471636    9.23720818515229
P         7.27434449026253    2.83966027504668    7.52447164790616
C         8.37650693294224    1.40318347303307    7.67316160307098
C         8.19488518633584    0.58603079341177    8.78745656972184
H         7.37430582989036    0.78673389706360    9.46511634280515
C         9.04732482818916   -0.47370920362907    9.02666680769893
H         8.89672348181290   -1.10010681739695    9.89367912834497
C        10.09655338324431   -0.72910284892201    8.15793241417671
H        10.76629153688468   -1.55560927645164    8.34477432912684
C        10.28743837296586    0.08219887330974    7.05373866104251
H        11.10668594937203   -0.11268608569832    6.37616465568404
C         9.43659560801678    1.14719380868067    6.81294995250195
H         9.61354656305777    1.77903906186852    5.95492680951229
C         5.67960811941228    1.98775609301551    7.78976427238096
C         4.77932177025983    2.39831549765376    8.76163186493875
H         5.01584522403175    3.25047492020265    9.38568298037295
C         3.58288655586360    1.72158212493360    8.92996352490430
H         2.88576508643033    2.04624632587855    9.68856088304267
C         3.28122952855439    0.63382090159667    8.12929431745346
H         2.34796595857636    0.10639277852627    8.26233148459240
C         4.17769276387169    0.21974968798662    7.15554505390778
H         3.94379567317110   -0.63026168590614    6.53076597787431
C         5.37057963070773    0.89341831126086    6.98421613983772
H         6.07627154658134    0.57617947979606    6.22689521696615
C         7.18322666890593    3.06214130639318    5.74227403338430
H         7.89669245613548    2.59831921060166    5.07606512944198
C         6.27369298667828    3.92299423546111    5.25593422425815
C         4.77987872698450    5.48548845886968    3.78263565746245
C         4.25413192912804    6.17346713530964    2.56564979784199
H         4.81002197404054    5.85354857031724    1.68877079815003
H         4.35094655506483    7.25471958327116    2.66377529577502
H         3.20077106160204    5.93782659306493    2.41945426089178
C         4.32624725746352    5.64717051895904    5.03079669991935
C         3.19763059758574    6.52984422623564    5.44593591059355
H         3.31956231497982    6.81862096580067    6.48727369890189
H         2.24911135148530    6.00148833358010    5.34635552185966
H         3.15902933542416    7.42299493392121    4.82598780165508
S         6.11776582487939    4.35921543939497    3.56530792868330
S         5.10991234153960    4.70622758194627    6.29928641961771
C         7.37195004412100    3.34666848334085   10.50310804183472
O         7.09692665328011    2.68273739789118   11.39405068791399
C         9.63802042496835    3.68123063985408    9.13123437976037
O        10.62233858996439    3.10925545172160    9.23739718747606
P         8.51903267478974    6.30396865655365    7.52446074031749
C         7.41699607109598    7.74053540032828    7.67318488354140
C         7.59875991527891    8.55770566812611    8.78744729000771
H         8.41937636576700    8.35696265272041    9.46505014668179
C         6.74641432353798    9.61751239154920    9.02669511312146
H         6.89711418737535   10.24391145136938    9.89368987846114
C         5.69713851939106    9.87295164341018    8.15803009696361
H         5.02746035042325   10.69949784251904    8.34490705979025
C         5.50611907326795    9.06163591821266    7.05386822825831
H         4.68682416629328    9.25655105140067    6.37636127303857
C         6.35686716304828    7.99657672736250    6.81303940325087
H         6.17981796009156    7.36472278787728    5.95504165116097
C        10.11382757920391    7.15579113222613    7.78975252177611
C        11.01404156900618    6.74527085852452    8.76170734759506
H        10.77740160913152    5.89321668627396    9.38585422029651
C        12.21054767020983    7.42189732062658    8.92999470316991
H        12.90762828492559    7.09723184866623    9.68862889653632
C        12.51232484213413    8.50955453966737    8.12922972618236
H        13.44563349850292    9.03691151662423    8.26223820876937
C        11.61591945806454    8.92361981334204    7.15542518138591
H        11.84990217015436    9.77357075129119    6.53059598428327
C        10.42298459225175    8.25002690973709    6.98410669382834
H         9.71736858858374    8.56724067084357    6.22670546874119
C         8.61016324037660    6.08143371036164    5.74228229414112
H         7.89664941645991    6.54517282178487    5.07607156213763
C         9.51970507988983    5.22056807935279    5.25598398649224
S         9.67557944094402    4.78427593646373    3.56537484378160
C        11.01356509233082    3.65812080402710    3.78269459721402
C        11.53931862654766    2.97018837672956    2.56568530397112
H        10.98323638436157    3.28992906571814    1.68886278625051
H        11.44276965843409    1.88891996986177    2.66389012560997
H        12.59260488191730    3.20607244964417    2.41933429383341
C        11.46724955548042    3.49650161758752    5.03084068993746
C        12.59595544187262    2.61394023964938    5.44595187558503
H        12.47400267312578    2.32499725031270    6.48724674828062
H        13.54441889085483    3.14244190512676    5.34651337225821
H        12.63473902422746    1.72087068060973    4.82588445356982
S        10.68352567598410    4.43739227936579    6.29934069518426

