98
CSD_code = IRAKOB | q = 0 | S = 0 | Stoichiometry = C49H41Cl2IrN2OP2 | MND = 6
Ir        4.01797606945036    4.89385673972268    7.82078667626013
H         3.42057030690989    3.49518828919020    7.77203143082022
Cl        6.15937489364011    3.85776721219493    7.75237430909007
P         4.28009662953959    5.03306943030053   10.13378365825415
C         6.00023872916191    5.19356087707198   10.70932688378856
C         6.45049368612987    4.53202210498415   11.84634666449976
H         5.78497248091917    3.88950478975098   12.40479140603369
C         7.76058798108577    4.68911905607792   12.26376140215426
H         8.10437452121764    4.17038901591020   13.14700183009080
C         8.62834828476832    5.49927429956347   11.55204271633637
H         9.65174207221313    5.61342415433818   11.87863958827039
C         8.18371964958750    6.15616591090328   10.41621290200776
H         8.86093985418690    6.78248968524407    9.85391810542286
C         6.87694758214416    6.00517915051243    9.99310568607629
H         6.53316713311648    6.50555608081828    9.10053410957014
C         3.48005752145199    6.52039978771949   10.82170430207209
C         4.20944326645971    7.65330066165592   11.16189731824794
H         5.28866503270983    7.63254455769022   11.11428515647034
P         4.21178581127569    4.98523671454919    5.50272195089016
C         3.55739791022533    8.80921831986725   11.55405247661145
H         4.13345249911670    9.68587194046708   11.81157983594512
C         2.17522989921429    8.84681406260764   11.60955913629174
H         1.66934412841640    9.75223785384677   11.91004987290175
C         1.44099306200755    7.72022402597160   11.27589083563493
H         0.36201553005158    7.74395675898215   11.31490130896425
C         2.08787565580387    6.56692161532395   10.87704023183728
H         1.50891592064380    5.69467216164347   10.60382307082291
C         3.64981353928714    3.67965643722377   11.17996150354567
C         3.02407216345121    3.88356629313043   12.40490342451336
H         2.88178525154289    4.88667243576773   12.78253713176300
C         2.58613468623647    2.79807288142583   13.14391992364768
H         2.09699205911955    2.96049217363626   14.09339793662679
C         2.77618212436891    1.50962883123544   12.67244610771403
H         2.42933177187710    0.66751383067674   13.25298052629988
C         3.41360964626270    1.30242995773567   11.45891673996463
H         3.56908662718559    0.29848072995283   11.09312509528035
C         3.84805946360916    2.38242719939568   10.71390699636557
H         4.34060346259884    2.23916711219525    9.76181515979066
C         5.22715224478277    6.40226946044578    4.97649405012315
C         6.45458977785592    6.55946382931034    5.61752767030784
H         6.75722058130069    5.84221650592570    6.36734122407934
C         7.27416128842818    7.62371600937538    5.29419973579021
H         8.22183889897527    7.74374699414303    5.79859685526820
C         6.88057620701262    8.53678125082218    4.32877712993989
H         7.51741074932268    9.37364179271978    4.08082839257245
C         5.67081093334729    8.37187991747749    3.67602102558409
H         5.36623776363962    9.07392133268412    2.91298979431012
C         4.84304892656721    7.30900333312061    3.99493858804943
H         3.90589809359058    7.18570205748359    3.47075534029716
C         5.01977860434368    3.58664114209832    4.66482817973826
C         5.86153170788425    3.78663422921649    3.57677245739185
H         6.06724375184849    4.78826196816575    3.22586308664767
C         6.44435156554301    2.70112198888279    2.94687024948130
H         7.10308860764138    2.86110374452938    2.10565543785762
C         6.18988000176981    1.41594395493329    3.39459668757232
H         6.65258738682053    0.57227704334471    2.90391272474032
C         5.34767379910880    1.21374823961420    4.47637043422109
H         5.15159973069329    0.21242644799968    4.82987872319803
C         4.76432401151586    2.29390392430896    5.11125386298249
H         4.11986378551207    2.15051885692193    5.96706350605374
C         2.65600720609371    5.16718589133180    4.56775565085697
C         2.15011096226252    4.13677039448618    3.78301259501321
H         2.70953845992441    3.21902457767018    3.67632682571621
C         0.93603889481003    4.28640774336778    3.13587269413488
H         0.55390077889476    3.48295779594594    2.52350464951405
C         0.21010410841304    5.45796476483690    3.27364622955910
H        -0.73815536693764    5.57068887873963    2.76890927647433
C         0.70087612161467    6.48373337310439    4.06616522363715
H         0.13693075448523    7.39730722779416    4.18473736818789
C         1.91368220371515    6.33859065924086    4.71213826383138
H         2.29241070604230    7.14420029874373    5.32692371445960
O         4.75674486237507    6.91576978723215    7.93490708003905
N         1.10603497572342    5.45293795084658    7.59190964002549
N         2.28122014521078    5.86889918627238    7.80667695017865
Cl       -0.92822238964347   -0.04731822076212    7.78106841741136
C         0.97194617533362    3.31481460731578    8.73847322377034
H         1.55507755742315    3.68518726459946    9.56736961069847
C         0.46130759223408    2.03453168071244    8.78684665525638
H         0.66326333533039    1.40429981218329    9.63903148532946
C        -0.30445039667033    1.56397879147890    7.73253566745183
C        -0.58833921099870    2.37604224467137    6.64355626926140
H        -1.19377220660553    1.99971866499255    5.83378258962335
C        -0.09618086970394    3.66254280186759    6.60711504565163
H        -0.30595664458515    4.30485613660441    5.76686627938361
C         0.71668521759210    4.14357732404325    7.63970965425312
C         2.43412103058679    7.23224331231371    7.89416557428659
C         3.77186806035042    7.72110008906179    7.95376421259281
C         3.94327608742474    9.12633584821939    8.03064816396287
H         4.95237861817801    9.50885437619621    8.06424814884282
C         2.86264692785409    9.95885396567231    8.07142106480486
H         3.01618353758347   11.02690991249366    8.14137368845213
C         1.54191975846961    9.46988331071759    8.02887261794077
C         1.34405719227956    8.11737528369235    7.93225322437461
H         0.35120010254097    7.69450898702578    7.89080911465758
C         0.39401329183516   10.43076107875476    8.10061339450487
H        -0.55435879964987    9.90735730332911    8.01251668486502
H         0.46175741200720   11.16965192897451    7.30276808689810
H         0.40876848395385   10.96569780355427    9.05009639680847

