96
CSD_code = IRAKUH | q = 0 | S = 0 | Stoichiometry = C49H40ClIrN2OP2 | MND = 6
Ir        2.71492013226882   -1.88857901905742    4.27869152768578
H         2.79780594969336   -0.93688244687479    5.51737529887495
P         4.89523248690092   -2.57655808052558    4.58746146454107
C         6.24278484751028   -1.40123996307491    4.22546225826118
C         7.42654864655289   -1.74043154727745    3.58164040740717
H         7.59363416649496   -2.75100736920366    3.23521816871499
C         8.39929881503445   -0.77748251149254    3.37418620332205
H         9.31550100388497   -1.04492606601457    2.86754873334784
C         8.20234415146605    0.52147749176012    3.81044354018147
H         8.96199822090373    1.26928121504510    3.63721206863250
C         7.03141007172241    0.85876129945380    4.47045940392940
H         6.87843141550063    1.87000329798105    4.81668986282675
C         6.05783164898075   -0.09882350200769    4.67922528525217
H         5.13612483474076    0.14081181552804    5.19025164230522
C         5.27763200453680   -4.03231659213800    3.56862584341431
C         5.52478751213256   -3.87074353373270    2.20629985407551
H         5.60894497862040   -2.87447509143396    1.79139030221931
C         5.64445280026190   -4.97797472040945    1.38832842839792
H         5.83569751655131   -4.84605752536323    0.33343070750463
C         5.50217363010579   -6.25148845175573    1.91597850712184
H         5.58398675648194   -7.11444660333859    1.27178784070801
C         5.24247844443000   -6.41701502907917    3.26583186905972
H         5.11736687078161   -7.40793725553938    3.67689494494685
C         5.12463835136689   -5.31295278993742    4.09040588522528
H         4.90456113580096   -5.43990149194658    5.14159054270725
C         5.39641835508036   -3.14138443147798    6.24811138412597
C         6.70992861238086   -3.54733343832904    6.46930034306136
H         7.42666007564536   -3.51843585696463    5.66011130661618
C         7.09455131774873   -3.98720242897056    7.72142201567570
H         8.11394582628528   -4.30247591446926    7.89098313659686
C         6.17469088913031   -4.02461588465393    8.75833377938157
H         6.47941802135129   -4.37013813557572    9.73545846271407
C         4.86856496978238   -3.62086936656127    8.54020268592862
H         4.15155958559184   -3.65231015514992    9.34746745057994
C         4.47817903954299   -3.17740178118390    7.28812471874156
H         3.46153621225964   -2.86782021385638    7.10010459137796
P         0.46433211562527   -1.43687093199701    4.01743654378449
C        -0.31560328912705   -2.62203777234518    2.88106146575473
C        -0.91469577266816   -3.77422647248852    3.38046841411621
H        -1.03471420970131   -3.89490632553279    4.44846625011443
C        -1.34309863640543   -4.76486698875361    2.51579627200200
H        -1.80163762927020   -5.65919902495292    2.91133380655566
C        -1.16822413184986   -4.61820847257692    1.15025358809604
H        -1.49337312792704   -5.39761003782079    0.47711454938789
C        -0.56387611725026   -3.47702667955754    0.64741364592339
H        -0.41633407112634   -3.36552179965754   -0.41680973155889
C        -0.13030878207387   -2.48517057489792    1.50625272154354
H         0.36812301971962   -1.60695498451300    1.11661095239211
C        -0.61873218678982   -1.56106680520219    5.48061647352168
C        -0.12452719713877   -2.05832936021235    6.67899485652280
H         0.90853013516837   -2.36629327183603    6.73266374161721
C        -0.95870385436464   -2.16960919541820    7.77812650644315
H        -0.57337565709846   -2.55999791305748    8.70866731880222
C        -2.28476324117826   -1.78231328121412    7.68608781427516
H        -2.93520169124769   -1.86732596060028    8.54437908957924
C        -2.78059818169900   -1.28558523944571    6.49041776024429
H        -3.81560776178523   -0.98438063229800    6.41752943192340
C        -1.95312924063853   -1.17445986249373    5.38915581145869
H        -2.33981478280850   -0.78666145809789    4.45685035867848
C        -0.02226204356225    0.20288009850877    3.38412303369043
C         0.63899305500335    1.29282435151503    3.94233639926141
H         1.39667487112616    1.10570857520696    4.69001280815414
C         0.33159268550833    2.57794232617956    3.53965393108757
H         0.85448427193768    3.41916958857579    3.96953031377654
C        -0.64449913135309    2.78593073521986    2.57810654036300
H        -0.88078317561422    3.78838377188479    2.25326250841535
C        -1.32024245655832    1.70643258650176    2.03550296391673
H        -2.08958623916840    1.86705233679820    1.29391162750881
C        -1.01606512743368    0.41671667058664    2.43677240761969
H        -1.55400983614048   -0.41718324111797    2.00733798437227
O         2.11162580098058   -3.83411325270220    5.22180756120307
N         2.86877894486822   -2.62470936906040    1.54823793408433
N         2.61349011535882   -3.06492270547713    2.71763743217199
Cl        4.29667674695578    3.04642195356884    1.53730635926504
C         3.23200902310370   -0.58511541294252    2.79156937179487
C         3.57765340212101    0.75462060942849    2.74804422933635
H         3.61941850157324    1.34130427177157    3.65168163311707
C         3.87571363975706    1.36766203470185    1.53983956807918
C         3.84427788613028    0.67737432648016    0.33845570393601
H         4.07999022407240    1.18072335832085   -0.58616888144731
C         3.50704071125440   -0.65967404238288    0.35229079441361
H         3.47183004439721   -1.23381497916813   -0.56119920667297
C         3.20309731829558   -1.29225419148213    1.55776736461125
C         2.26210971907067   -4.36003791685540    2.92160247938752
C         2.00713446610309   -4.70045204166344    4.28630836763336
C         1.63527688249236   -6.04245483149230    4.54259213337030
H         1.43534992028240   -6.32606729508697    5.56561636793954
C         1.53440431051191   -6.94777319601237    3.52274365371324
H         1.24852131646814   -7.96726069084251    3.74599245331488
C         1.79040947190205   -6.60199084657008    2.18368504548835
C         2.15107479117160   -5.31013622012969    1.89866120271518
H         2.35922304134255   -4.98802988619559    0.88869896321990
C         1.66559645831262   -7.64013762375309    1.10934490674951
H         1.89166704356102   -7.21401917885477    0.13517644100904
H         0.65436579883609   -8.04637423659493    1.08586404292467
H         2.35146254209361   -8.46671131354795    1.29545545334196

