77
CSD_code = IRAPEW | q = 0 | S = 0 | Stoichiometry = C36H30N4O6Pd | MND = 4
C         2.15533233593996    3.24696749797989    5.50961777592138
H         1.40182368417242    2.67419376459810    4.97368855479121
H         1.65340204552744    3.83750619535207    6.28647053968425
H         2.83184782230136    2.53788308879709    5.99016703339582
C         2.21265291944427    4.42788150089179    3.34633839446211
H         1.40282678706267    3.72591868096235    3.16161189129156
H         2.90521674177710    4.36576071485213    2.50451285099304
H         1.79106501463494    5.43965309255558    3.38125053509524
C         3.91792351876694    4.85645712760928    5.03325513559239
C         4.53260608447935    5.81355781459699    4.20883186695428
H         4.16084751623779    5.98555208161531    3.21188173929289
C         5.61911673719117    6.56438906071531    4.62945819242835
H         6.02530925228045    7.28100055679807    3.92751131174346
C         6.17690575544384    6.41106598568141    5.89296017141636
C         5.51729665663136    5.48744254197640    6.74167722338728
C         4.42491344036992    4.72492504432868    6.32638221888033
H         3.97913304987251    4.04907638139810    7.03820474667865
C         6.05826657530525    5.40772565540032    8.06573847615854
H         5.68093501683742    4.69767027784823    8.80230699589819
C         7.69199487202867    6.22279267115620    9.56494004409612
C         7.00970412649782    6.17260691388855   10.77847442245734
H         5.93122424996377    6.11376699646512   10.78715548565163
C         7.70047456290836    6.24648361052099   11.97374457407905
H         7.16417013853787    6.22623653976821   12.90810370776691
C         9.08333689624436    6.36730152661691   11.95979928181959
C         9.77675858587130    6.39745196471285   10.75101119621592
H        10.85175633827593    6.48573096547799   10.76801032450099
C         9.08676274248126    6.32875890839607    9.56233294565863
H         9.60881771947021    6.35760342094605    8.60742068829052
C         9.44576424586230    7.04028133888982   14.22592044001636
C        10.44896671460953    6.92718971633429   15.31047196607192
C        10.20032569828254    7.60583893069091   16.50210957530560
H         9.29433853502189    8.18673374820843   16.58628905974005
C        11.10355516000525    7.52973702060174   17.54435292223091
H        10.91001855923339    8.05736370787324   18.46622590741322
C        12.25821860070236    6.77552173296598   17.40491194647981
H        12.96473713053489    6.71540280751518   18.21959557398132
C        12.50877654670967    6.09773248750049   16.22195558811971
H        13.40922534979627    5.51068807819123   16.11755683055239
C        11.61019717764492    6.17038095082274   15.17409519386579
H        11.80048188922765    5.64392368066118   14.25188377094841
C         9.14761363560087    4.70031436327971    0.39726598743878
H         9.11093929084806    4.46069954832987   -0.66415334490722
H         8.47241695246864    4.03360574354815    0.94287852174625
H        10.17019439723301    4.56339843427632    0.76277314411550
C         8.67147382900121    6.61554975340396    1.72702553946817
C         8.99426366607881    5.98018961400984    2.92455952106801
H         9.33785035308304    4.95851614623156    2.93594257643272
C         8.86876671002910    6.65851040850276    4.12117430576705
H         9.11793586339761    6.16548415377595    5.06521591311542
C         8.43196070621753    7.98305182557498    4.15411228097693
C         8.12300087707659    8.62062775355541    2.95099914556950
H         7.74906647319695    9.63388136026405    2.95424953815086
C         8.23342600654218    7.94130733722546    1.75783272826381
H         7.97682084741771    8.41681723552120    0.82473437744121
C         8.72406253874167    9.82977588041011    5.52963826472806
H         9.07166616593556   10.34157177919509    4.62729796287313
C         8.84952231523285   10.60116954462862    6.72372625177611
C         8.80304523706733   10.00868535904881    8.04377387140330
C         9.02845391240815   10.88492259180145    9.15545427051472
H         8.98990114189628   10.43648830114192   10.13688678636815
C         9.26417648546872   12.21285918921317    8.99683099680323
H         9.42249165053284   12.86589361263852    9.84172648500328
C         9.31326558241501   12.76673489743443    7.70129672108676
C         9.11969028499196   11.96298581964147    6.59458437625431
H         9.16792204747210   12.41566988712556    5.61396436466025
N         2.88312664694990    4.06986895819918    4.57408224865488
N         7.04469763724908    6.19455764024281    8.33325654135560
N         8.32118400573635    8.60539857460160    5.40872094698122
N         9.57373743123008   14.14979523474277    7.53296089991364
O         8.40148338170318    7.63213768214988   14.32962030848144
O         9.85849014093684    6.41160543361853   13.10445887178590
O         8.73830447009487    6.04343803648283    0.49746955924132
O         8.62403407655152    8.77880161146548    8.25496312772552
O         9.75417390553988   14.82773849793783    8.53114472905808
O         9.60726654646855   14.59482232725315    6.39585385105138
Pd        7.61474799477619    7.43077068102245    6.88965123011046

