89
CSD_code = IRAPIA | q = 0 | S = 0 | Stoichiometry = C42H34N6O6Pd | MND = 4
C        10.24162623540342    0.36537840990427   23.18156595078659
H        11.23832725625456    0.58886149351364   23.55497398787400
H        10.29764474790474   -0.53940073829993   22.56322202899831
H         9.60270689489107    0.16184940513886   24.04312235282636
C        10.70237931775911    2.42957807738847   21.90239247948236
H        11.68163113987459    2.22936195411667   22.33017677463894
H        10.43157935206854    3.45806127477305   22.15480516118435
H        10.77901596188962    2.34456978941898   20.81236302100286
C         8.46933171838176    1.46110496649059   21.92143721596229
C         7.98484140435540    2.50456620778856   21.11433369803831
H         8.60928602637454    3.35846491758961   20.90816775264235
C         6.71370539965427    2.48280716570233   20.56405602623970
H         6.41663259707842    3.32750951126702   19.95520553830454
C         5.83706240544355    1.42903599107408   20.78558889619473
C         6.30149209020093    0.41311650498537   21.65895509045003
C         7.58632442882330    0.41714179320462   22.20289020998940
H         7.87049436422152   -0.40033133676917   22.84553540612769
C         5.29189169638555   -0.53367313460192   22.03786765899227
H         5.46602447934100   -1.28741814308191   22.80629368130909
C         2.97613899590711   -1.04074144136337   21.90826341980353
C         2.94450776158712   -2.41594668901501   22.12549679757642
H         3.84050269783924   -3.00364371791332   21.98944446208487
C         1.75907516658888   -3.04041969011616   22.46658989068471
H         1.73432027906743   -4.10729199182213   22.61754985062748
C         0.60297198351684   -2.28607355985269   22.61399914884994
C         0.62633519825875   -0.90814624782549   22.40813753358614
H        -0.28654039140777   -0.34511741960531   22.52583057016250
C         1.80302016890068   -0.29064117942910   22.05048974125022
H         1.84821733881310    0.78581701687000   21.89095483265623
C        -0.75975122703786   -3.85079201828526   23.79060490556197
C        -2.16908445162248   -4.28928088617027   23.90965356223485
C        -2.47059415403426   -5.27537456004125   24.84731773516455
H        -1.66976584753817   -5.67922733205700   25.44813206895772
C        -3.77132703384488   -5.71599102194744   24.99518253999794
H        -4.00347970345703   -6.47912967457167   25.72280562046353
C        -4.77774279626118   -5.17725656283611   24.20862842345315
H        -5.79497183201491   -5.52116399315520   24.32431843823547
C        -4.48206253784708   -4.19775196640772   23.27339481325496
H        -5.26865343813576   -3.78114053722348   22.66201022008141
C        -3.18295485063879   -3.75113196093261   23.12036102363188
H        -2.94809855042811   -2.98991676658249   22.39302716106063
C         9.51298792218318    4.06178864682395   15.68955236820998
H        10.53047015851103    3.88771790499855   15.34360792366713
H         9.52242380506031    4.83354223568806   16.46586716965948
H         8.89870564082164    4.39796130343553   14.84844957165446
C         7.80710029321896    2.74243979851873   16.69658917650191
C         7.42679648134124    1.48520234355774   17.18051119538777
H         8.13814388107032    0.67777123110721   17.11658884884780
C         6.18248004372860    1.29664399264466   17.73110415828112
H         5.87910841335651    0.31747572356114   18.11249180165771
C         5.26978998386385    2.35731456988101   17.79995474076469
C         5.64230224451368    3.60058104660427   17.30284752599237
H         4.96521396969959    4.43933539601234   17.37658181795521
C         6.90325282065593    3.79697956400775   16.76488856020766
H         7.16754220794936    4.78031745784855   16.41000833978146
C         2.95001594399412    2.57121034161942   17.84071928967663
H         3.05858983803461    3.24696801926048   16.98695079690666
C         1.59868859004291    2.23324031822385   18.17122206524146
C         1.28012118810775    1.00481107307964   18.87230795668056
C        -0.11209019688382    0.69547843138532   19.02664669966461
H        -0.34164882129293   -0.22717302413816   19.54026931763321
C        -1.09227759753576    1.51743849819275   18.57841443292121
H        -2.13667432971645    1.27954067550665   18.72046538347438
C        -0.77025251693491    2.72088533951765   17.89443822252845
C         0.57164734131423    3.03590788766302   17.69093016591881
H         0.80436852998871    3.94561847146949   17.15571437845383
C        -3.93084661343731    4.16203509125317   17.28205519027281
C        -5.03829604838992    3.73241606129807   16.52083421770745
H        -4.96441955942307    2.80155421797092   15.98038264035086
C        -6.16883411833168    4.50020464350516   16.44651170979686
H        -7.01900140820921    4.19264637541473   15.85696676461200
C        -6.24064693384123    5.70804151720319   17.14906138948588
C        -5.15990311415391    6.14034570935291   17.92180212064526
H        -5.23833504964361    7.08187183956154   18.44429857280660
C        -4.02058771082465    5.38331508646123   17.98687466702007
H        -3.17416271584550    5.69642542363827   18.57939916854342
N         9.74013237060420    1.50197866808996   22.44892303534495
N         4.11956282467530   -0.34452674751395   21.53136179530159
N         4.02070545353917    2.09456561786954   18.38393489331148
N        -1.68338666008226    3.61263008597959   17.42321402280205
N        -2.90715851191727    3.31555991138296   17.48285292547955
N        -7.41334875981093    6.50056052649961   17.07157387442494
O         0.15513565760515   -4.32059219817077   24.41898352816359
O        -0.63028365835801   -2.83941244876049   22.90503332742581
O         9.06625991524889    2.82596058148422   16.19539057962319
O         2.14540654780230    0.19193710920818   19.29895182186684
O        -8.32665713944633    6.11060034253454   16.36015585391311
O        -7.45347978587686    7.53490191570560   17.72072860496099
Pd        4.04957889128149    0.91186152208627   20.01064169865979

