61
CSD_code = IRAREZ | q = 0 | S = 0 | Stoichiometry = C29H23Cl4IrN3P | MND = 6
Ir        5.24939983207387    6.86774560677911   13.25271358957324
Cl        4.39103341260376    4.71747218760926   13.52015526805022
Cl        6.35835425372516    6.76514620895463   15.33816881887197
P         4.45450459689383    6.76379469274860   11.02974478923321
Cl        7.10489123820650    6.03366159185333   12.05517474380068
C         5.10077271981833    8.27036587216153   10.25438163181340
C         4.84522919477432    5.42124550350974    9.86715106591361
C         2.61338429301590    6.23362073240189   15.42829839296962
H         3.57164728889659    5.92315386885415   15.81363801887606
C         2.03817536180588    7.61035047448466    9.80398348232552
H         2.62591134131082    8.28644294113094    9.19957924098637
C         6.30761528994702    8.24378172082498    9.56308371506518
H         6.80432877029505    7.29880600391952    9.39890419328470
C         0.50987686756530    5.86155774760404   11.32170490211616
H        -0.08028755417957    5.17547303502115   11.91070425937356
C         2.64733369718602    6.81340667146030   10.76736645654755
C         5.20403253009696    4.14688882860087   10.28275457799528
H         5.30995992412360    3.93084890167747   11.33380385661512
C         1.87766982893923    5.92560409417686   11.51446837579591
H         2.35932743042600    5.28867942002455   12.24385260559328
C        -0.09762516439925    6.67606061363635   10.38086721384131
H        -1.16681946773453    6.63345115900048   10.23481994578144
C         6.86932960400282    9.42420554383621    9.10995399495818
H         7.80422357895116    9.39924691804936    8.57053250047851
C         1.32938560194820    7.72829440004110   14.03935650810013
C         4.91655603440654    4.69922325817328    7.57731929334959
H         4.80062709037723    4.91506173564648    6.52528089021698
C         4.48387867702974    9.49237793494296   10.51833957744936
H         3.56181942527360    9.51965231732874   11.08464656383094
C         4.68650728681869    5.69243101477815    8.50954702964279
H         4.38929951941580    6.68035655687433    8.18453374330800
C         5.43256165900039    3.15834231163370    9.34116527466775
H         5.72043238168624    2.17033275546113    9.66690263568752
C         5.05000737795251   10.66755263449672   10.06159365743183
H         4.56412070614913   11.61102378696892   10.26349931704887
C         0.22163456890662    6.07910842991444   15.37930738058097
H        -0.69274319121506    5.61213968813884   15.71159334640015
C         0.16278049957627    7.12124860984725   14.46988813392276
H        -0.78440516920224    7.47093721917091   14.09026341798600
N         5.92227201557199    8.77896770636950   13.13525928008513
N         3.76907976020237    7.82392685795004   14.03737962726117
C         0.66910338388025    7.54278784062652    9.61971986517780
H         0.19963277714088    8.17073676784072    8.87665654870930
C         5.29446848037143    3.43180480548652    7.99147734772426
H         5.47701407845971    2.65863563919680    7.25979374586166
C         6.24158808764586   10.63455426854888    9.35425165152439
H         6.68295167007422   11.55450096103186    9.00084076595585
Cl        1.23058037446473    9.00766091237183   12.89107459184224
N         3.83249864695494    9.10136985209119   14.06883381222505
C         4.99410460103401    9.63283849111564   13.62686200331303
C         7.09197959638323    9.24814633912912   12.72848883324877
H         7.79501522171150    8.51403719378978   12.36003275869446
C         7.39248177189368   10.59629614598070   12.76753258657944
H         8.35586026398004   10.93816147816054   12.42729118625695
C         5.22810590767610   11.01062871527993   13.68942221802020
H         4.45525693680773   11.64684007586159   14.08674499710025
C         6.44176665297462   11.49159052737666   13.25158668902719
H         6.65709366409258   12.54836323565200   13.29016613572129
C         2.57209343072600    7.27245264264027   14.49655381833348
C         1.44440691059625    5.64527092806653   15.86658733823124
H         1.49021443092749    4.84363562369212   16.58620178963113

