147
CSD_code = IRASID | q = 0 | S = 0 | Stoichiometry = C58H76N10NiO2 | MND = 6
Ni        5.87555143130113    3.31952393197446   23.10612852248114
O         7.49181799816404    3.23801013565374   23.90240771886281
N         5.18743854667017    4.66016507243360   24.69209734149197
N        11.07863914179014    5.06276665465591   28.59961392854134
N         9.86251864611604    5.36964171529092   28.35624294399387
N         6.55017322014568    1.55512345312223   21.75222698673608
N        12.95319916162747    6.44078012575862   32.04594255234240
C         7.97972040684067    3.72919511439502   24.96628127724788
C         9.34367758301281    3.42362284905228   25.27397169056734
H         9.86394001491120    2.77583856540301   24.58153451983019
C         9.97414890581696    3.92162614442973   26.36815452743695
H        11.00781558779548    3.68915147546566   26.57770533548678
C         9.29300270020076    4.78432758327150   27.26258673409280
C         7.95804904481306    5.08199371126953   27.00366310854816
H         7.43906582459519    5.73252943154427   27.69397549160851
C         7.28542893146076    4.57808082245029   25.89547866491037
C         5.92096329396206    4.97164563462706   25.68996924354279
H         5.51088099147519    5.62199345474513   26.47333463866346
C        11.64646491727850    5.58753381068608   29.73516008907231
C        13.04488295110127    5.60803245282830   29.81131592432795
H        13.63308439826246    5.29802848779334   28.96173649302693
C        13.63448440794606    6.04441293218396   30.98121319755312
H        14.71251290966667    6.07842522842115   31.08065625408910
C        11.63044749418636    6.41841590191106   31.97582721321296
H        11.11465981702231    6.75165395085648   32.86835113870795
C        10.92587558386150    6.00411919988961   30.86351073493959
H         9.84714831288393    5.98142831767870   30.84373469441963
C         3.87179528549005    5.24423751886531   24.59784255972365
H         3.54780160464714    5.65513226345926   25.56506720858889
H         3.17378846671499    4.46161473048292   24.29219450762334
C         3.88273474180687    6.34339145033911   23.52597221930287
H         4.30685331146866    7.25898931091655   23.94435400423735
H         4.54355120312365    6.00998884693828   22.72298769244436
C         2.50242476611023    6.61905749583317   22.93725796833717
H         1.85208044985590    7.06849224967855   23.69102779392802
H         2.05307110625981    5.67200918216123   22.62918930069567
C         2.59704490108836    7.53044931891753   21.71571428234996
H         2.94644485729392    8.52000651825957   22.01903634706368
H         3.33725536495720    7.11372272227433   21.02864420986596
C         1.26985974529562    7.66079318253653   20.97235302539127
H         0.54681844007726    8.19525835345651   21.59271534354254
H         0.86938025692290    6.66277656716328   20.77887026891014
C         1.44934264229299    8.38659243771276   19.64171647527847
H         1.88549876827100    9.37265468443627   19.82009550042280
H         2.14963753070690    7.81843932683340   19.02480867072971
C         0.14032546330329    8.54338827396881   18.87325862105288
H        -0.55493015767061    9.15913320870006   19.44903133247702
H        -0.31813452169180    7.56056003051280   18.74191270810647
C         0.37283300045726    9.17381501572821   17.50272683486937
H         0.85283534254496   10.14774022245810   17.62834699223348
H         1.05712794908725    8.53826325572829   16.93534772811750
C        -0.91830234729565    9.34530191433573   16.70798546804753
H        -1.59707463442443   10.00777457285699   17.25116777283615
H        -1.41089343072179    8.37532062729741   16.61192448170558
C        -0.65771737309406    9.91207617748669   15.31484524831282
H        -0.23321870646947   10.91536944361455   15.40551374096012
H         0.07878943087431    9.28410803634052   14.80807985028861
C        -1.92536631504517    9.96711086981542   14.46693684389924
H        -2.68226569218060   10.56210601102381   14.98389899674090
H        -2.31456217035370    8.95419730384332   14.34797868046378
C        -1.65837731393359   10.56511742518517   13.09152327680703
H        -2.57304026026929   10.59938398521311   12.50422774653667
H        -0.92924526335773    9.96245049167373   12.55469824707210
H        -1.26874518282741   11.57759841993497   13.18119873707095
C         7.84109684183359    1.37468047514906   21.50291876116344
H         8.52223702186638    1.99286623404904   22.07059890025444
C         8.31400811857121    0.45026154247656   20.58525514597193
H         9.37436725887228    0.34283806988739   20.41676142966211
C         7.39946447807092   -0.32686254743717   19.89338883962129
H         7.72903785669636   -1.05571849493865   19.16742469130972
C         6.05173297105321   -0.14881614131294   20.15907071517903
H         5.30231912426553   -0.73453666047125   19.64993079073723
C         5.67701057424073    0.80128059777336   21.09606203213306
H         4.63351930035552    0.96233930553638   21.32863373462727
O         4.25929401272129    3.23799105438039   22.30984036787451
C         3.77141249806156    3.72914007805807   21.24594068700410
C         2.40744403989122    3.42360675804140   20.93825942206869
H         1.88715374398226    2.77587615987908   21.63072614408913
C         1.77700039515762    3.92156801311172   19.84404118857237
H         0.74333407133142    3.68909758097095   19.63448243767113
C         2.45818145791711    4.78420618759915   18.94957716558380
N         1.88868991436871    5.36952232943944   17.85590794828586
N         0.67258115855525    5.06266953711433   17.61248579407620
C         0.10478947495881    5.58746010091249   16.47693607535992
C        -1.29362590079745    5.60819669794192   16.40081032096415
H        -1.88186243207986    5.29848763593188   17.25047510972233
C        -1.88317770887306    6.04450818519695   15.23086100733210
N        -1.20185267093165    6.44069161260418   14.16609040142474
C         0.12089589358415    6.41813134826967   14.23618997115703
H         0.63672962820167    6.75094598294972   13.34353153719279
C         0.82542313464873    6.00377310561755   15.34851214611198
H         1.90414665255490    5.98078151055912   15.36822202333800
H        -2.96120462589255    6.07890946548286   15.13152207340357
C         3.79313658125762    5.08186180688821   19.20851109819450
H         4.31214006583489    5.73235930439992   18.51817819467811
C         4.46572406315234    4.57800461089904   20.31674009007533
C         5.83015432377823    4.97165373457102   20.52231685626974
N         6.56363798534100    4.66025901817683   21.52024780829217
N         5.20097871428385    1.55504979646118   24.45991762256789
C         3.91005420497210    1.37457231358945   24.70919801846928
H         3.22890797757827    1.99268567509684   24.14144617117848
C         3.43715287723267    0.45021493098846   25.62692813685251
H         2.37679323016114    0.34276780399205   25.79540281372136
C         4.35170740185360   -0.32680972048602   26.31889146995405
H         4.02214209475971   -1.05560705440710   27.04491820798902
C         5.69943907782912   -0.14873688107788   26.05323041003819
H         6.44886089188151   -0.73438836130016   26.56243771801414
C         6.07415220170599    0.80129444932276   25.11616890866559
H         7.11764292526627    0.96235922215301   24.88359854604363
C         7.87927092005470    5.24435276614614   21.61451551867464
H         8.20326064616421    5.65526976469283   20.64729766172588
H         8.57729652325448    4.46174461746781   21.92016545479058
C         7.86830753922089    6.34350347946725   22.68638736161876
H         7.44421619124519    7.25911392614285   22.26800324040712
H         7.20748443657443    6.01010927306144   23.48937053754518
C         9.24862912327833    6.61912842645069   23.27509019324949
H         9.89903544587458    7.06838585803851   22.52126835159179
H         9.69787993122545    5.67208554242576   23.58332563563885
C         9.15407757220907    7.53072517523443   24.49648330138558
H         8.80491460690772    8.52031128986619   24.19299343117716
H         8.41373408313527    7.11425527498373   25.18356323635373
C        10.48122070258270    7.66091731892786   25.23994438515317
H        11.20445012112509    8.19507191698500   24.61953928204963
H        10.88143969146355    6.66284728424155   25.43367076401119
C        10.30187926112490    8.38702142133859   26.57043192328295
H         9.86611550483419    9.37321036381693   26.39181195603183
H         9.60126956337112    7.81924299308963   27.18732320584409
C        11.61078958331870    8.54349019577511   27.33914026614573
H        12.30632226910114    9.15894347860448   26.76340287732281
H        12.06890445254795    7.56051948661728   27.47059977976845
C        11.37840850483338    9.17410813194070   28.70960570521706
H        10.89882811907270   10.14822311973350   28.58381664018367
H        10.69371393440277    8.53887137171039   29.27684466748423
C        12.66939623117276    9.34506280571167   29.50469665929683
H        13.34863571464131   10.00701107001584   28.96146271115721
H        13.16141851048693    8.37481010440703   29.60101519012701
C        12.40877327838858    9.91232158515808   30.89763518412447
H        11.98524260875059   10.91601614134739   30.80659400036599
H        11.67143118324858    9.28512151642518   31.40414080173093
C        13.67631299715596    9.96601200890495   31.74581200050827
H        14.43414295760393   10.55972005213012   31.22879903119053
H        14.06414288697879    8.95264330964856   31.86549036510477
C        13.40916836945421   10.56539193674051   33.12068547130821
H        14.32356743291800   10.59809793209624   33.70837716592185
H        12.67873659938803    9.96443324215021   33.65739388272585
H        13.02162059958657   11.57857053820506   33.03044399601478
H         6.24027752102815    5.62191130245645   19.73889757911622

