139
CSD_code = IRASEA | q = 0 | S = 0 | Stoichiometry = C65H52CoF6N6O2P7 | MND = 8
Co        5.44412890596442   15.00109711070976    7.85332572148690
F         9.19772499000534   13.91932510211177    9.09025223362242
F         5.38188709284026   11.51656841515793   11.42723903299627
F         7.29541182121180   11.89101036401014   12.62047440355935
F         3.84083292764907   17.15601374100979    5.90993844437784
F         1.38476606531258   15.97715124511398    2.56998920885719
F         2.55940831515026   14.01661353660226    2.19647337337492
N         7.27156661815934   13.03193698155411   10.37917583347617
N         7.56027219599300   10.25030358502077   10.68445012125202
N         8.50810316370488   11.55498774616077    8.39086353577327
N         3.16143100293876   15.36027734268860    4.31766439508974
N         3.83921617742456   16.18291677222775    1.71894740243059
N         5.38946901193467   16.97233600784286    3.87653551291040
O         5.63263772302780   11.36104901384406    8.80485850409002
O         4.37915826145484   11.59001366964355    6.95454395285997
P         7.90231148453813   12.94743661079695    8.89487560133835
P         6.72018856153989   16.77322707604117    7.94925933379040
P         6.93568211770135   11.64826355639354   11.08522826407330
P         8.29342719854331   10.18965938774932    9.23378399741894
P         4.49430949717352   16.09238904551237    4.87682350775834
P         2.88535525185636   15.46195164984400    2.76022429557606
P         4.93956266983291   17.21474455925420    2.34217747817631
C         4.81035119164765   10.31608849019366    6.50908916374294
H         5.90078637488360   10.26648114126533    6.49163871164380
H         4.40129307976212   10.19382548638323    5.50883094123782
H         4.43745393639313    9.53198636828749    7.17154290165568
C         4.86559233021671   12.02462615471516    8.12307569569677
C         4.37948243780599   13.36444670966872    8.43254194303436
C         3.55755643846877   14.17411016348674    7.57967071599024
H         3.09317322072600   13.85216708459549    6.66192007809927
C         3.34171642991618   15.39887807708841    8.23292396918562
H         2.68294116946154   16.18064877233375    7.89368504501908
C         3.99747918484554   15.35426452398431    9.49028926404393
H         3.92823946012733   16.10037534790397   10.26706587067813
C         4.62379836485322   14.11017180273871    9.62759300035621
H         5.08131967674481   13.72898144320160   10.52101588393729
C         7.00725349489253   13.87045676314554    7.63478832157585
C         7.30217234538964   13.61699299337460    6.33984683680782
C         6.43686292494445   14.28775585429920    5.38396974611564
C         5.52046396531290   15.10615497424756    5.94540072432781
C         9.93925729767715    9.49143543384783    9.50418472097532
C        10.07657306408867    8.44107034332355   10.40132524203376
H         9.20231825735670    8.08958665867945   10.93020374992672
C        11.32237110685216    7.88004434643350   10.61404481452021
H        11.43849793109478    7.06685686414102   11.31571847978930
C        12.42462078914812    8.36343786198080    9.92549128573932
H        13.39741275814436    7.92363467515892   10.09199299197199
C        12.28403400076223    9.40956225019330    9.02789891837539
H        13.14707594899662    9.78387949223484    8.49623753164057
C        11.03980658047732    9.97674497408295    8.81438416747443
H        10.90383243865640   10.79957577676856    8.12730597826793
C         7.48016440576926    8.92181354496433    8.23368452455727
C         6.43667513178278    8.16633312989534    8.74494302647889
H         6.07171248750200    8.38897756878865    9.73669396636885
C         5.88199058635708    7.15815778433655    7.97477587148519
H         5.06993828878602    6.56228416889944    8.36639976987292
C         6.37129068372132    6.90834561200813    6.70237365386705
H         5.93836041809844    6.11948457610647    6.10455688513694
C         7.42026842913373    7.66129384882617    6.19626626702821
H         7.80204293025875    7.45811658849155    5.20620349354481
C         7.98277816924899    8.66409050635728    6.96485497041621
H         8.80311406735363    9.26459105974121    6.59681655196003
C         8.40064582076529   12.76628644461600    5.85628804147420
C         9.71663748363122   13.07162538413232    6.18619319792940
H         9.92224372859152   13.93137760738635    6.80426545506330
C        10.75158632292048   12.28712558232941    5.71241597666990
H        11.77070807906865   12.52832498198076    5.97891715288933
C        10.48705411402827   11.19811456312566    4.89826521368520
H        11.29678958504353   10.58165395900971    4.53515922569632
C         9.17991518407858   10.90458035421043    4.54838443470477
H         8.96691984548954   10.06303004579631    3.90469693828934
C         8.14111494574194   11.68698673617662    5.01871125358619
H         7.12277675781275   11.45351625538014    4.74460071914878
C         6.56302275395790   14.05991874269330    3.93571620645958
C         7.75844777921900   14.31322689235674    3.26945286318080
H         8.60328438956355   14.68910813189391    3.82453291463347
C         7.86110514072174   14.08059022477860    1.91163765295723
H         8.79046172137449   14.28782529844028    1.40125553108532
C         6.77971466968931   13.57984971758624    1.20580257369391
H         6.86446869439770   13.39639957388293    0.14509300501971
C         5.59658512825484   13.29788950807715    1.86651231751649
H         4.75779823393764   12.88500419794714    1.32679569003169
C         5.48752269367142   13.53427533141899    3.22582185986636
H         4.58289776568814   13.26709808212288    3.75304498942380
C         4.28702664913916   18.89841228150769    2.16438770718141
C         3.75197654781692   19.55613604006186    3.26274545430245
H         3.78512434159865   19.08085736490072    4.23354729715728
C         6.40178279495929   17.10344206767695    1.30198068440183
C         6.33891448865041   16.52832616289469    0.04180058035301
H         5.39805091455930   16.12299748948907   -0.29961340430852
C         7.59350876219123   17.62967860798791    1.78041956066247
H         7.60659569787243   18.07371843036890    2.76531584789143
C         8.32167424980612   16.75118017915435    7.08434390156114
C         8.37335043022872   16.77850628577984    5.69120026955156
H         7.45813762115899   16.78814860728443    5.11655599457891
C         9.59686142724114   16.78295754372465    5.04382002219875
H         9.62972655708273   16.82955134273339    3.96457825036115
C        10.77464106139190   16.72598125707200    5.77084963561631
H        11.72652805419615   16.72147805712428    5.26049131663345
C        10.72634275027570   16.66761340022224    7.15344155829434
H        11.63956439221704   16.60808741988976    7.72647744573446
C         5.92700063573451   18.33061425558094    7.41682596460436
C         6.36397008890449   19.13563125269235    6.37347611561942
H         7.24640646926726   18.87409606248892    5.81206736513467
C         5.67372175571431   20.29411485768541    6.05660414968869
H         6.01412585332999   20.90903786142734    5.23607859052188
C         4.55276565429513   20.66282246885276    6.77866357240645
H         4.01651127829895   21.56479214235465    6.52328294619239
C         4.12234990661337   19.87326117596306    7.83352780129220
H         3.25150290442923   20.15960003787258    8.40473853986395
C         4.80405357840149   18.71543412339352    8.14801772571433
H         4.47088028163926   18.09357558062299    8.96670014394155
C         7.20919197059618   17.23810713063608    9.64493997854506
C         7.49380397579582   18.56247856727044    9.97147921994987
H         7.41076480029012   19.33586461854191    9.22087068117845
C         7.88489620603288   18.88446872530440   11.25804473748851
H         8.10219441653787   19.91259695072828   11.50869495441106
C         8.00178002359145   17.89514465333054   12.22270833786189
H         8.30625219643751   18.15508694506790   13.22581867962759
C         7.73475643805818   16.57624144029694   11.89574225756416
H         7.83507247910889   15.79605873165320   12.63491350836662
C         7.33800694710383   16.24797572829151   10.61108365803334
H         7.14553655025976   15.21724728459832   10.35242674399517
C         9.50845105161937   16.68599984478956    7.80976056266045
H         9.48186193877515   16.63698193075745    8.88738328612096
C         8.73123402050772   17.56927688669354    0.99698157669228
H         9.66477288192471   17.97407512129010    1.36112801980661
C         8.67212055794437   16.99426583661898   -0.26334824804144
H         9.56086054184128   16.95071212552402   -0.87613009679915
C         7.47878102050163   16.47668248593472   -0.74120666452157
H         7.43968441393577   16.03244896425803   -1.72508806462875
C         4.25674548274769   19.48980818513652    0.90729066425709
H         4.67255945229256   18.95839943249838    0.06229305986485
C         3.69580174714305   20.74435323785245    0.75398617086940
H         3.66992270973713   21.20950218439678   -0.22052603931668
C         3.16501664324036   21.40456462787393    1.85191381117194
H         2.72618981555040   22.38383676691502    1.72879086717381
C         3.19251007732163   20.81161161992557    3.10394873590674
H         2.77291280464946   21.32494826621218    3.95636152241544

