69
CSD_code = IRASUQ | q = 0 | S = 0 | Stoichiometry = C30H32N2O4Zn | MND = 6
Zn       -0.00003168233240    4.16403881828002    6.21781740013266
C        -1.14914588633692    7.26131189114483    8.17593136659455
N         1.54721805111672    4.05990123826689    4.76979781801501
C         2.45150050359222    5.02847706353736    4.72895409802333
H         2.17672790889722    5.94137301713051    5.23527348967646
C         1.81489149169960    2.90525340386974    4.17993150112231
H         1.04854482454289    2.14756269005591    4.25413759359889
C         3.67793741271508    4.89092678074734    4.09170833398208
C        -2.10124938410141    7.12407901810335    9.17996445000392
H        -2.52781416861880    6.14857772500404    9.35668609089361
C         3.01094808388681    2.65104447359513    3.51765145143700
C        -0.73382023641906    6.07818839980225    7.37393643854965
C        -2.48020308064360    8.22014464198803    9.92946167718206
H        -3.21971889660435    8.10823496468511   10.71032823494759
C        -0.58508545590830    8.50890476921988    7.93519044805817
H         0.15586393432219    8.60234719959302    7.15553974159826
C        -1.92044790597493    9.47176656402256    9.69477693401467
C        -0.96967121802562    9.60099602662724    8.68835354587022
H        -0.52703403832339   10.56901835767549    8.49755531182823
C         3.95059469612116    3.67215772445337    3.48073011928503
H         4.89811819816077    3.51886348880131    2.98160301788467
C         4.67316362106459    6.00742712995977    4.06884657287688
H         4.29624657781969    6.86767483998331    4.61424036836752
H         4.88535570959712    6.30578366727816    3.04275520207792
H         5.60972673613801    5.68746975240918    4.52301109308951
C         3.25719868942139    1.32809247421861    2.86364991281369
H         2.81660005462979    1.31804944111943    1.86639052985316
H         2.80108210564015    0.52746338360278    3.44059746894671
H         4.32289067501332    1.13582197064392    2.76642356771517
C        -2.31574604583932   10.65197760243611   10.52979015494073
H        -1.68839895223840   10.70171370063025   11.42063551135264
H        -3.35095431895376   10.56967667173816   10.85352363238261
H        -2.18952528749713   11.58034374567722    9.97733379543147
O         0.14285831610610    6.21183291500430    6.48537561810329
O        -1.27963772375496    4.97105608095923    7.58236854662617
C         1.14867356369025    1.06685829440350    8.17640028995631
N        -1.54687327342661    4.26797030283525    4.76929419849473
C        -2.45107705560793    3.29936878390918    4.72842234847855
H        -2.17631901533895    2.38650426327274    5.23483666415869
C        -1.81478150494105    5.42270523241429    4.17976122743329
H        -1.04813814565167    6.18025611104708    4.25334629463727
C        -3.67768448135914    3.43699184311237    4.09152567700741
C         2.10110135121237    1.20398981061688    9.18020589099390
H         2.52734126576559    2.17954493243661    9.35723267687962
C        -3.01092350343995    5.67694220375288    3.51766186387003
C         0.73330677008814    2.24999236376461    7.37444480598260
C         2.48029606858660    0.10783163784549    9.92945592856095
H         3.21947524022800    0.21978145185987   10.71052719615215
C         0.58441450611576   -0.18070190824009    7.93576353141875
H        -0.15603104348062   -0.27422722225889    7.15579050823154
C         1.92050857358154   -1.14379859260887    9.69473691657583
C         0.96928368481058   -1.27289681799711    8.68864906805416
H         0.52704831879554   -2.24098046187953    8.49750144568666
C        -3.95050222927470    4.65581803665371    3.48074873992233
H        -4.89823448229276    4.80922277304855    2.98203672389264
C        -4.67302826508768    2.32055794270636    4.06900741728580
H        -4.29602259477230    1.46029872372312    4.61432359450594
H        -4.88547272651080    2.02218530826123    3.04296758442528
H        -5.60948108934506    2.64055426112069    4.52339511292284
C        -3.25726512361708    6.99991467648716    2.86371261374176
H        -2.81680951613173    7.01006148074635    1.86638795032444
H        -2.80108525406050    7.80050153339523    3.44065890620290
H        -4.32297049117680    7.19218459202051    2.76665978176257
C         2.31607359143579   -2.32411673924149   10.52947067529239
H         1.68897438146249   -2.37408875449400   11.42048981297858
H         3.35137449004176   -2.24177402290105   10.85292470574395
H         2.18978893039497   -3.25237773080579    9.97683769673966
O        -0.14299567541125    2.11622173690193    6.48553180019532
O         1.27905142583834    3.35715232183749    7.58291931421350

