69
CSD_code = IRATEB | q = 0 | S = 0 | Stoichiometry = C30H32N2O4Zn | MND = 4
C         1.04297046210122    1.64227802965932    7.75941188978286
H         0.04638703707111    2.01308136866467    7.56913901850124
C         1.31895583124665    0.27998300390874    7.72254072888358
C         2.62234993794304   -0.11532750716565    7.99001192230904
H         2.88291144514922   -1.16530376513727    7.98071103588227
C         3.59315630068977    0.83742519471544    8.27765976996328
C         3.20000986215250    2.16945339611878    8.29326983945952
H         3.89779160635457    2.96125675313428    8.52126303320117
C         0.24422734074364   -0.70841343450591    7.39634821770088
H         0.09550820601303   -0.75526301853327    6.31743006934865
H        -0.69726985440019   -0.41069402063433    7.85146451441918
H         0.51089417265923   -1.70203033233337    7.74776279893067
C         5.00267254399717    0.44041796960000    8.58175534022461
H         5.04752225016797   -0.06099476094031    9.54800200859999
H         5.64795328738882    1.31342665734886    8.61756159506599
H         5.37807294459074   -0.25093284386422    7.82922895186016
C        -0.38024208765663    5.72493599378297    6.67547036201332
H        -1.12654914240801    5.31296721711339    7.33813383836850
C        -0.70874831076071    6.66437820798957    5.70627697459384
C         0.32016157038077    7.14889051131382    4.90729853676292
H         0.11119836405695    7.89151130520481    4.14889549722122
C         1.61630031584949    6.68364455787213    5.08548139578126
C         1.82435315300696    5.73472402186639    6.07934368028597
H         2.81044186414052    5.33771625419316    6.27149035195412
C        -2.11351737915365    7.14999097396632    5.53957172411844
H        -2.18172877338167    8.19889671523599    5.82572657831265
H        -2.79387549607166    6.57735584780150    6.16319164019899
H        -2.42719616924494    7.06677962666651    4.50021704457787
C         2.75621033115599    7.20244323695127    4.26731714827664
H         2.42201335493317    7.49302024235131    3.27399085365375
H         3.53849582776443    6.45311567144954    4.17763691791104
H         3.18453970461443    8.08067160690634    4.75105445796892
C        -0.14466086467454    3.56213210353291   10.33180565719935
C        -1.10921700082896    3.07115124188234   11.36047079694709
C        -0.99102523002623    3.41535023599018   12.71035704931203
C        -1.93227262325613    2.91270096199925   13.60024763128305
H        -1.85857329174836    3.17393783665636   14.64684011919190
C        -2.95820498869142    2.08680560396723   13.17527938200138
H        -3.67422186498830    1.70677167669110   13.88994933842380
C        -3.07129831147305    1.75617513478972   11.83565046988615
H        -3.87557924695844    1.11933737699086   11.49676623586103
C        -2.15112879782241    2.25587701365855   10.93370908898418
H        -2.22562145408690    2.02354181821383    9.88160442656816
C         0.10270872988851    4.31512908675765   13.18913617267789
H        -0.05932763409429    4.60665240194890   14.22487841896837
H         0.15912157214175    5.20652518710049   12.56711080699549
H         1.06230559309726    3.80777360174104   13.10482844085561
C         2.71998923844620    6.28037393400313    9.30677071514500
C         3.60965123867527    7.40867590300751    9.71459937068676
C         3.39666731368219    8.13008593640692   10.89279281985503
C         4.27051882988246    9.16713670378329   11.19446480756422
H         4.12363789504534    9.73084087284430   12.10548129815770
C         5.32189182725014    9.49133506564691   10.35509337626090
H         5.98414692040617   10.30573463427115   10.61210084108015
C         5.52873250942388    8.76776851764574    9.19310462006770
H         6.35216506636309    9.01194547408143    8.53769035094113
C         4.67624064807870    7.72526681763151    8.88165804020823
H         4.82317019574129    7.13946993633940    7.98618377366385
C         2.27469766288558    7.78572492321441   11.81915347350371
H         1.32059396435829    7.98376363607680   11.33382767909300
H         2.33796594041029    8.36380776128921   12.73874733704439
H         2.29548674265140    6.72383721428125   12.05859503863460
N         1.95704745704246    2.55774645337587    8.04265107632232
N         0.85406058958664    5.27581106849022    6.85591246020125
O        -0.58112258865775    3.84723013545119    9.19074631005428
O         1.07468969207080    3.64676135336086   10.59633296122027
O         1.48226126489216    6.36268159205755    9.46423205209492
O         3.23969683102917    5.27480559639527    8.76673339530545
Zn        1.34243567313714    4.45393050775677    8.73933643159981

