57
CSD_code = IRAWOO | q = 1 | S = 0 | Stoichiometry = C21H29ClN4PPt(1+) | MND = 4
C         1.39062668120742    5.60146415512472    1.38736427353203
H         2.08000870327470    4.81137164380663    1.11310761338890
C         0.04273067070350    5.34225897554204    1.55376600509536
H        -0.33185080206227    4.34055723183310    1.42193740780114
C        -0.80163201891556    6.38981574840873    1.88491214637446
H        -1.85881098535825    6.22782398378151    2.02330965104624
C        -0.25757912682198    7.65593086049919    2.03227877690510
H        -0.88385247367388    8.49528434973295    2.28871771506270
C         1.10327301646368    7.84923650939956    1.84287742067110
C         1.71151226677912    9.22051121077291    1.98234822473313
H         2.33614729234017    9.41586198603813    1.09325681823897
H         0.91259026033685    9.96183683232699    2.01765623986931
C         2.97283187378094   10.65202604355361    3.61019871411125
H         3.25042629787177   10.55894373662974    4.66734230867371
C         2.02663799015354   11.83281030323484    3.47895249995171
H         1.09970206773288   11.63873330325022    4.01969254431163
H         1.78851041094448   12.02270445820677    2.43082604666102
C         2.73496139394758   13.05864510319347    4.06381284165248
H         2.90660235995652   12.90113811723014    5.13011498454488
H         2.09318862776143   13.93296489241009    3.95569863915132
C         4.06899607463488   13.31776432665468    3.36495059620658
H         3.88524684035352   13.57285199076937    2.31909409764172
H         4.56362398205837   14.16959982335257    3.83115977801175
C         4.99165291692159   12.09806630034841    3.42809577074864
H         5.91362677842551   12.30287269120303    2.88278732864700
H         5.25340036757477   11.87173830123033    4.46265463062992
C         4.25981693232120   10.90927165811617    2.81971436760758
H         4.00797219630049   11.14955209285046    1.77538427125802
C         5.85962078370640    9.43722303892575    1.70017851862453
H         6.58701233423217   10.25254760005069    1.67641177252371
H         5.26299397460673    9.47917268941036    0.76953861591248
C         6.58925297621709    8.12183546474754    1.71116482079401
C         7.96082465569021    8.06399059395456    1.91230573994309
H         8.50983997635777    8.97172556680282    2.10541121904994
C         8.61378258097327    6.84262040593111    1.85594685200080
H         9.67990492778144    6.78390674549573    2.00717954819729
C         7.86851004582519    5.70418883549482    1.59237783874830
H         8.33265840741123    4.73409683467064    1.52488967428159
C         6.50364373187626    5.83041876487961    1.40993611508081
H         5.88605666877284    4.96723202326360    1.18839861102611
C         4.18936389017700    7.88991203852305    4.95046810956589
H         4.12156146944554    8.76255595028298    5.60612984249850
C         5.58625590230181    7.28653603919007    5.03606897259471
H         5.80189816321480    6.96844484560098    6.05335168450170
H         6.33588839480050    8.01717031712103    4.73483351218116
H         5.66253374870973    6.41567419916466    4.38327554885229
C         3.09812514572399    6.88088861812229    5.29020091859453
H         3.13534544674550    6.04266191316056    4.59088268130062
H         2.11586650719787    7.34581778122277    5.22058623975656
H         3.23014342704718    6.49340352523798    6.29746350569964
N         1.90830011375046    6.82449824819528    1.52526904450258
N         2.47236673725082    9.31434090676064    3.24191092852006
N         5.00668560946269    9.64188386818537    2.87894778928247
N         5.88051425272136    7.00888634038042    1.47048920468989
P         3.89294032418455    8.38659358999783    3.20487160461418
Cl        3.92441493193640    5.87530394501345   -0.57433350696600
Pt        3.89103427686363    6.97523268071169    1.42583288110021

