99
CSD_code = IRAWUV | q = 0 | S = 0 | Stoichiometry = C46H40N6O3P2RuS | MND = 6
C         8.61536045449182    3.74946042392727    1.71329723713110
C         7.42353552899017    3.68669816067703    5.00162145439522
C         8.46442837327644    2.76480613544305    5.15382756576425
C         9.01894628132018    2.62622418359615    3.90617443849805
C         5.50701434453917    3.23483869120602    0.23042094383450
C         6.24998455733716    2.40490295030829   -0.61215545855020
C         7.54626273787961    2.50963119498913   -0.17511573826065
C         8.47477721366109    7.22650705970646    1.98618701798045
C         9.79730954043569    7.12672577254049    1.54102734501752
C        10.01310554014353    5.78850181878789    1.32267876042634
C         5.60774043607516    6.17033902344130   -0.66843361396107
C         6.96214062408015    6.26260889101445   -0.98917811475298
C         7.44739223318454    5.75065291457502   -2.17690491304380
C         6.58065140508946    5.15045819241713   -3.07605512238709
C         5.22902511471643    5.08827247228075   -2.78610544005684
C         4.74410158927394    5.58596082885972   -1.58857002306022
C         5.56086081500763    8.44106134950666    1.01478420429790
C         5.78714892923371    9.15257754977580   -0.15984459596340
C         6.09480240977285   10.50095833711046   -0.10650456904346
C         6.16671383129728   11.15448666055268    1.11265935448371
C         5.93030047023229   10.45482549547561    2.28515235592772
C         5.63094707353783    9.10533381865312    2.23630756755780
C         3.28497430160607    6.85225172690835    0.75024981335562
C         2.65100573588760    8.06517191256400    0.51170649953773
C         1.27955155179552    8.10589299576730    0.32432043957275
C         0.52909219873636    6.94406320659322    0.36273203771297
C         1.15443181309577    5.72971025093300    0.59402771952608
C         2.51988665104293    5.69043715062715    0.79369364285740
C         2.64078474892740    5.22408173006959    3.77540368604744
C         2.65141312754018    6.60730358632755    3.65126903123656
C         1.49888631426369    7.33913874952277    3.86675345214335
C         0.32671612306768    6.69087742824042    4.21835855147296
C         0.32138003582343    5.31602935721379    4.38998379115238
C         1.47614590186046    4.58301568437938    4.18556263592622
C         4.29507049059402    3.90031892944584    5.34744051761635
C         4.53453785035000    4.97228750657676    6.20635808847364
C         4.53647287015925    4.78825773091256    7.57493156586810
C         4.29456206338028    3.52887360557367    8.10346347531154
C         4.04767717394302    2.46347501641945    7.25633429626677
C         4.04072183420084    2.64482616983118    5.88239000139612
C         3.78121895732036    2.70086953199585    2.84550220460351
C         2.61697351192563    2.40399348299651    2.14663784286847
C         2.47018862369960    1.17124178485279    1.53161597437693
C         3.48218274427760    0.22909140799788    1.59569897960062
C         4.65027406911989    0.51736680706158    2.28492161281639
C         4.79728840170453    1.74501639768805    2.89898334202378
N         7.33514784154310    4.07220376472287    3.74147767887478
N         8.31736282710364    3.42972414008448    3.07875809770814
N         6.29206477278400    3.81137938438545    1.12117217119749
N         7.53063313387264    3.36328590664575    0.86905809155275
N         7.91723634937030    6.02882101894856    2.02255102082603
N         8.85824774860404    5.15753446062222    1.62299924022027
O        10.35004762487308    3.28363033484073   -0.19083895509851
O         9.77864411153311    1.43470325506542    1.30939064776717
O        11.17484189075208    3.27370749861911    2.10956059016280
P         5.09202690024204    6.67109665766214    1.02458618548930
P         4.22213304129150    4.32503684080132    3.55993283851657
S        10.20145848552796    2.80319900074153    1.15918386150318
Ru        6.08432978627181    5.28909078859643    2.60934726342958
H         6.76220585382146    4.07859169646516    5.74887378005920
H         6.08983371448561    6.35174057183552    3.71632101120110
H         8.76514649227391    2.27570040368292    6.05649860405719
H         9.83551447131394    2.03998763148503    3.54306962142825
H         4.45004278324784    3.41256389601684    0.21190172775131
H         5.88243626147212    1.81546163063792   -1.42545373647003
H         8.45583400706272    2.06145312417230   -0.51064233738040
H         7.92394802526548    8.10242672356495    2.27048833482394
H        10.49441969186448    7.92675913121493    1.40390907108293
H        10.87082718528967    5.24391225135211    0.99154012666297
H         7.63875295239635    6.76228752491859   -0.31043531109296
H         8.50304110537349    5.81226607130259   -2.39492516959226
H         6.95830973283350    4.74071663735239   -4.00051014763603
H         4.54438381648999    4.64001287146825   -3.49160429823437
H         3.68641308509800    5.52234660543974   -1.37700665723506
H         5.72003963878705    8.65434511387336   -1.11669008903685
H         6.27521236578146   11.04444538899165   -1.02251072466570
H         6.40654270900421   12.20683073512689    1.14824809958526
H         5.98363643040299   10.96117217720920    3.23781811804185
H         5.47021474223752    8.54178882954101    3.14601769292116
H         3.22000087716936    8.98202478760196    0.47861198270353
H         0.79475725968636    9.05469321301392    0.14642785881506
H        -0.53992267715956    6.98305265974806    0.21631180839074
H         0.57270527520342    4.81951380394349    0.62400583955075
H         3.01966442289072    4.75374553665671    1.00501542627570
H         3.58205143878450    7.09189675967614    3.38058463749315
H         1.51356753056071    8.41363817720724    3.75897475885508
H        -0.57928723670909    7.25710715045492    4.37619001805360
H        -0.58559830339044    4.81364700300899    4.69402560050542
H         1.47656669466066    3.51560768513655    4.35709925331667
H         4.73666223128062    5.94421392273047    5.77480133981718
H         4.72625892188507    5.62386525393206    8.23253622630842
H         4.29655358405994    3.38061559631776    9.17310202798282
H         3.85434066070517    1.48203404053402    7.66449478374636
H         3.83967585394783    1.80194852283235    5.23691159487625
H         1.82029835993151    3.13102533219839    2.08323346692889
H         1.55937165719327    0.94857166939775    0.99430508054911
H         3.36410604618637   -0.72692962940544    1.10808693687236
H         5.44737634161459   -0.20975054183822    2.33408831677709
H         5.70993488532673    1.97553291404731    3.43719673590659

