75
CSD_code = IRAXAC | q = 0 | S = 0 | Stoichiometry = C22H34N12O3P2RuS | MND = 6
C         9.32736974622448    2.30735699547026    1.27687540773052
C        10.23099444528203    0.97403950665499    4.38004281981178
C        10.97471361068708    0.10162840950631    3.57879743178620
C        10.75792187599824    0.51363913327348    2.28671994920808
C         9.91038662111581    5.60255333846370    2.25415228971913
C        10.54578460044929    5.66722642808018    1.01036627645770
C        10.39417927034382    4.41910622661657    0.45819079025573
C         6.01991465184192    2.10798506487721    2.37359419000400
C         5.83997074877583    1.50551758254111    1.12418186570000
C         7.06710655816913    1.55655694129093    0.51106892641389
C         5.13960896010305    5.10684290053493    3.45439756414144
C         7.16263202970616    6.93351629445275    3.88781739550058
C         6.15866680860077    5.41235308258694    5.99405612865111
C         4.01727197581119    6.20888330709057    5.26606138815669
C         4.86967845837617    7.49633596613112    3.47655083307523
C         5.75973649397048    7.75694041352122    5.65441982564960
C        10.04734463777361    6.02679444092589    6.12167874860002
C         9.78935641341130    3.53543827444117    7.28409260955512
C        11.64448712959793    3.95778301614177    5.24429573168956
C        10.81302506138261    5.43793189337624    8.32210729927607
C        12.17118351497435    3.65381815542436    7.56898666118933
C        12.38786450035937    5.79755090931189    6.59509283608635
N         9.61052758200944    1.86453673568312    3.62722293292890
N         9.93138698559798    1.57820126523595    2.35407019378165
N         9.40084049025880    4.39931686033576    2.44825279275246
N         9.70172835186764    3.68520021227981    1.35369407961507
N         7.26836140694586    2.51575260483239    2.50775271837271
N         7.90500884882385    2.16988624241721    1.37375263597923
N         4.29112410777519    6.21499785041904    3.83854571265540
N         6.06768898788206    7.81332146472111    4.23465784132111
N         5.19150589296059    6.48742019482525    6.07586110604372
N        12.48997487243357    4.37137775120134    6.34488748907986
N        11.08853976711586    6.19493389306346    7.11161762233825
N        10.87312081381285    4.00100157638475    8.12412404368368
O         9.22783225476492    2.41905342945116   -1.33655686677214
O        11.35535887745866    1.79432775616417   -0.29918425688878
O         9.49006678301922    0.21479136083424   -0.30861176814512
P         9.82130130979564    4.24719984642734    5.55955561429872
P         6.82468313244381    5.12801868879764    4.27366823135996
S         9.93589826585469    1.57890987024287   -0.40681774811667
Ru        8.35942606303311    3.44781905283530    3.98221399364871
H         7.60834770679745    2.62041661548328    5.04926762342957
H        10.10594086092410    0.97600894172569    5.44667934269298
H        11.58083161740582   -0.71809740846961    3.90352757897446
H        11.10959769367806    0.14660836948010    1.34638282049337
H         9.80819127915040    6.37247964612391    2.99467918683774
H        11.04408552470142    6.51125915903667    0.58127946742054
H        10.71217698430172    4.00033605522538   -0.47185104806048
H         5.31508657203138    2.22768350717348    3.17290550164909
H         4.93674812748214    1.08718031597794    0.73218468128451
H         7.41118802021554    1.21311883380525   -0.44097221889492
H         4.63108241157223    4.17950350179248    3.73742346823902
H         5.26849992536631    5.11424217690537    2.36464071604576
H         8.05297032238395    7.26010072273457    4.43717605644205
H         7.36139118441247    7.02923166057457    2.81318191843158
H         5.69387545665341    4.47591572653359    6.32479180534265
H         6.99414671143620    5.62588429076642    6.67123984549334
H         3.26973504815991    6.98146538948179    5.47153052111340
H         3.61194147626095    5.23423215824742    5.54906602703075
H         5.11096054661564    7.49306682206714    2.41026671199588
H         4.12560949784637    8.27485070583241    3.67192757978623
H         6.67288156858849    7.94796058922172    6.22498088230853
H         5.03168680534264    8.54440946006285    5.87349558983362
H         9.10281496312827    6.38933248960961    6.54572489539729
H        10.29950530641573    6.64850172149814    5.25421092881938
H         9.83117147495827    2.44338480349605    7.21376778404959
H         8.82964196775556    3.79958380388414    7.74440500422095
H        11.81514173331010    2.89140257364642    5.05520051631841
H        11.93704058405957    4.51412041419645    4.34398795156949
H        11.56254848846797    5.71309277302521    9.07067186620406
H         9.82086380472289    5.70665405597267    8.69462701489394
H        12.93532209664917    3.90010816928619    8.31303768965962
H        12.19961064926268    2.57940567854848    7.37017314243417
H        12.58639863817560    6.33994597420617    5.66669005365295
H        13.14579204497805    6.07024536590376    7.33594575829170

