77
CSD_code = IRAXIK | q = 0 | S = 0 | Stoichiometry = C30H36B2N8Pd | MND = 4
C        -3.83597373642915   15.84868924171180   10.63619247873311
C        -4.88896057418161   17.75259261690942   10.48282740028009
H        -5.57265418186704   18.53403164481944   10.74940110359063
C        -4.06307178864710   17.66752330914997    9.40589958629480
H        -3.89205441730372   18.34111063306632    8.59038323192972
C        -2.42766016883918   16.01044256704409    8.57000683125580
H        -2.37386097469208   16.71475533100366    7.74060455983326
H        -2.69678974070050   15.02736151117049    8.18678045015500
H        -1.44497804627677   15.94299837102682    9.03936248511725
C        -2.94765817364741   14.82034341903986   12.76851756555724
C        -3.10015538904780   15.70296903693571   14.75762939710794
H        -3.54784196360300   16.22190970778654   15.58201993366310
C        -1.86612101481527   15.13899640960364   14.66673076025064
H        -1.06070894998890   15.08154174295614   15.37101170515762
C        -0.61800557414415   13.90943420342628   12.92091349005361
H        -0.88452336753300   12.92688703551883   12.53566959861878
H         0.09871975483203   13.79294367020766   13.73307369707997
H        -0.15017139763284   14.48242065227968   12.11837148527344
C        -2.53672147365132   13.40731336873584   10.41530866141024
H        -3.01348260845346   13.16798183223143    9.46681010865618
H        -2.41097997859818   12.45540761815191   10.92766069369405
H        -1.54382253898632   13.79127192829465   10.19285948962905
C        -4.92412211577766   13.66655433923802   11.52898322238315
C        -5.96050926710776   13.76348129504612   10.59399595914438
H        -5.80628926831156   14.35495517011812    9.69807971518625
C        -7.15909479790662   13.08746210735691   10.75371750747726
H        -7.94005302019817   13.18219957171282   10.00947221133113
C        -7.36065646952513   12.28004019984025   11.85929599287924
H        -8.29712503423016   11.75523011042934   11.99004895468539
C        -6.34259655722185   12.13659322591616   12.78553789491789
H        -6.48188423387439   11.48398232708684   13.63841161245710
C        -5.14632904909976   12.81483457755576   12.61669974627954
H        -4.34294128644250   12.64857288874250   13.32615917726310
N        -4.73158418724362   16.63006882392105   11.23172710140000
N        -3.40807135931875   16.47066419899380    9.51263278408536
N        -3.74821148108971   15.50382448007544   13.58043362407968
N        -1.78186365097341   14.58861028117137   13.41649539388786
Pd       -5.58647814883785   16.03982651156906   12.95924554876133
B        -3.48317566938713   14.40659323037090   11.29283297039632
C        -7.33689712690020   16.23126759178774   15.28229841679332
C        -6.28391499947660   14.32737604514071   15.43585965467561
H        -5.60023087381300   13.54590734256741   15.16935740254662
C        -7.10976632971591   14.41257922691309   16.51279845795630
H        -7.28075816225106   13.73909497773813   17.32839824204878
C        -8.74512341450401   16.06977238000804   17.34856399515076
H        -8.79875838438399   15.36563960544118   18.17812316219148
H        -8.47606949328584   17.05296403177857   17.73154493768482
H        -9.72785878155350   16.13700130581989   16.87929332048724
C        -8.22522847552900   17.25950372254977   13.14981368178552
C        -8.07267600098112   16.37681610085306   11.16073526257393
H        -7.62497711282126   15.85780995095426   10.33639505861274
C        -9.30672457962546   16.94076448633494   11.25159214459964
H       -10.11214092867703   16.99813931701571   10.54730980578834
C       -10.55492340925721   18.17032528917765   12.99737139214922
H       -10.28844763642710   19.15294653305208   13.38247670389129
H       -11.27168839776631   18.28667329376162   12.18521830727924
H       -11.02266045785091   17.59740723563103   13.80001729835854
C        -8.63616189858152   18.67269407923844   15.50289804932570
H        -8.15946982917037   18.91210276977515   16.45140957011459
H        -8.76195877971061   19.62457733771000   14.99051266347282
H        -9.62904114422026   18.28870153031350   15.72535125398171
C        -6.24896897450258   18.41369527310684   14.38936179172296
C        -5.21233712556202   18.31654449424475   15.32405999775778
H        -5.36631080756233   17.72481121897173   16.21985003839641
C        -4.01374100729438   18.99250699082192   15.16412425515318
H        -3.23260150653415   18.89763370678145   15.90816786306047
C        -3.81242147104359   19.80010270654230   14.05862914515409
H        -2.87600879209393   20.32499374475263   13.92780887032570
C        -4.83068107378166   19.94368628361759   13.13262287694355
H        -4.69160653657590   20.59651036920375   12.27987580275066
C        -6.02693835775839   19.26546922771384   13.30164713443668
H        -6.83045465479879   19.43178376972784   12.59234149775070
N        -6.44136719691131   15.44977388736057   14.68680105093179
N        -7.76475119325557   15.60943891751312   16.40595586934374
N        -7.42460688060242   16.57610044757476   12.33789775919733
N        -9.39102301462514   17.49118122216001   12.50181165410473
B        -7.68974328984900   17.67328439613509   14.62550148152663

