70
CSD_code = IRAYIL | q = 0 | S = 0 | Stoichiometry = C30H28BN7NiO3 | MND = 5
Ni        5.14157542862102    6.84229730795086    5.98641045601767
O         6.47412779652827    7.58021417954620    7.03949634097667
O         6.86349659831282    6.45994976801188    5.30042349951396
O         8.50110560306739    7.16390681838191    6.48907396916682
N         3.63108750522900    7.73572348797792    6.68906835201456
N         2.51800961719198    7.05769937738055    6.99211459338432
N         4.01512346793238    5.98064419528948    4.79568799624673
N         2.92838308136911    5.34239376181731    5.25796356813310
N         4.75870362427866    5.03943905792909    7.35310566456904
N         3.45310341107629    4.85731961388743    7.61536058413116
N         7.32884556997084    7.06461107327002    6.28863884704266
C         3.48660122058584    8.99953531246044    7.10311243947682
C         2.22680921861136    9.12407497478173    7.69943090762247
H         1.79407047742882   10.00963805822650    8.11714978870327
C         1.64419222966236    7.87326358948570    7.60676853823917
C         0.30024640669818    7.44263231006394    8.07010681616202
H        -0.29993658597202    7.09410090272589    7.23116669752855
H        -0.20645646155213    8.27907772835088    8.54411883209005
H         0.38411374581895    6.62729264438042    8.78579700577250
C         4.50005030871018   10.02492618051522    6.89181032702076
C         5.33741203293543    9.96084795313361    5.77914903130146
H         5.20379063398186    9.15362665323618    5.05995879208012
C         6.31542219878426   10.91511247589527    5.57876365519366
H         6.96639331314627   10.84894529439262    4.71902203530427
C         6.46142989689138   11.95627479207055    6.48123885748694
H         7.22749958487602   12.70176996394230    6.32788709567629
C         5.62374161731437   12.03733661544266    7.58127674323172
H         5.73707249797075   12.84835336109435    8.28588417122566
C         4.64827890293078   11.07979451773784    7.78850890155390
H         4.01142527359791   11.13403576902158    8.65859717439277
C         4.26802689362141    5.54433735880570    3.55801807020374
C         3.30790659506968    4.58765797162153    3.22008247444600
H         3.22465112476287    4.05922999136481    2.29265671850302
C         2.47790880454952    4.48903851286343    4.32302542219899
C         1.29341803363269    3.61293776583155    4.51072871775400
H         1.45273881553853    2.93442830105775    5.34659186493614
H         1.12519510438940    3.03015323220532    3.60949231375437
H         0.40516758640152    4.20534091097063    4.72077222824506
C         5.36325881480973    6.07803855979534    2.75397198863533
C         5.57470158362440    7.45375937390737    2.71099284766623
H         4.88208395012443    8.10711479738255    3.22654472384084
C         6.62779561513504    7.97544367135413    1.98441738651948
H         6.78905524721324    9.04364664051528    1.95798817048939
C         7.47458812370015    7.12902246639073    1.28794394595244
H         8.30313542844981    7.53510312608875    0.72662452232870
C         7.25690490071100    5.76146881186009    1.31053714186480
H         7.91598725850642    5.10185956170268    0.76507525243337
C         6.20516249864679    5.23486004328297    2.03721661324999
H         6.04475333779331    4.16755102253190    2.07200727590686
C         5.45078104542561    4.36816454591968    8.27054244888499
C         4.56191603624946    3.74573195737467    9.15961551287194
H         4.81059893921935    3.12561677974010    9.99655962974778
C         3.30126334486150    4.07642998685387    8.70411434676723
C         1.97750901142376    3.69309208056246    9.26137335868601
H         1.33323250693139    3.28667500049620    8.48505017475335
H         1.47955721413258    4.55925849021871    9.69540416553615
H         2.11174029126382    2.94600145583869   10.03887112723360
C         6.90785766467901    4.29983533735495    8.23759451561106
C         7.56189284405258    4.13391063804663    7.01865614824836
H         6.97760581905532    4.04589796395232    6.11283750486620
C         8.94210128663437    4.08247328866462    6.97017941110288
H         9.44146795502659    3.96708624430987    6.01970314590197
C         9.68179950928477    4.18714038328388    8.13604634115764
H        10.76050737940739    4.15476984899830    8.09640837897427
C         9.03687950146286    4.33700025779160    9.35257553176103
H         9.61345793061005    4.41970020041522   10.26274435581128
C         7.65669594310212    4.39084624884948    9.40677338963216
H         7.15160780327650    4.52439241461491   10.35259635146675
B         2.43038845772942    5.54470290103203    6.70492166012832
H         1.33558158348598    5.13844411773856    6.85175314068070

