44
CSD_code = IRAYAD | q = 0 | S = 0 | Stoichiometry = C13H25BN4Pt | MND = 6
Pt        9.91700220995296    3.61490518529711    7.64522980643333
H         9.22282725724013    4.23411069724548    9.31149530009223
N         8.57492860016890    5.21809672339434    7.00225813053674
N         7.77770036979671    5.40153182511577    8.06419158078550
N         8.08574632705992    2.43040241252432    7.81952235315953
N         7.38483430000950    3.08635553753435    8.75445003045691
C        11.06324164376518    2.13189898021096    8.49731634809124
H        11.23968251953738    2.40775326850894    9.54116886886323
H        12.03187770152147    1.96460857904618    8.02680240957495
H        10.51114460566667    1.18969485081829    8.48621376157007
C        11.54724645585679    4.87177227643807    7.68208712839242
H        11.72224093820386    5.15984436611784    8.72287059680790
H        11.32334743583212    5.77742471060332    7.11433268561236
H        12.47147497652193    4.44531387988118    7.29264457750510
C        10.44490134784318    2.95874425220990    5.77554793601974
H        10.85006959562119    1.94744115912103    5.79002804825448
H        11.17277023997721    3.61132682334982    5.29404683788820
H         9.51835302124064    2.96474928730664    5.19631011074329
C         8.90427773491804    6.16536142612152    4.74033897175441
H         9.88440877410840    5.69956897492183    4.79876205608548
H         9.01290857130898    7.20441724840680    4.43589445269691
H         8.31925275706633    5.64835446320955    3.97925116627640
C         8.22317305440292    6.08582867022120    6.06022971827311
C         7.15468931496895    6.85162792503420    6.53478409638794
H         6.64439980459198    7.64015424226991    6.01940922554327
C         6.89679308230150    6.38201506813329    7.81297784563585
C         5.85802926707159    6.82395054997482    8.77941488385201
H         4.97926955133322    6.18083685938522    8.71543697263712
H         5.55133185969261    7.84220427456324    8.55288481142435
H         6.23895166385946    6.77975894572644    9.79679702794373
C         7.87498937249232    0.39517658687807    6.42833076187297
H         7.50219213463141    0.67386844730547    5.44230059890085
H         7.51844187513143   -0.60677973538726    6.65655769928815
H         8.96149794139028    0.39635156351087    6.39561402690461
C         7.39296683122406    1.35705843078160    7.45548480035701
C         6.19922691482242    1.32770875074364    8.18257420083869
H         5.42463359528974    0.58981518308752    8.12441925444922
C         6.22933281885894    2.44915776238731    8.99589753529094
C         5.22882333805545    2.92406434083317    9.98642445376117
H         5.68886456780955    3.03721576757685   10.96689813203765
H         4.41220187962664    2.21035328493526   10.05680962654040
H         4.82667899731560    3.89261226604005    9.69243634708873
B         7.98452064775425    4.42029938218038    9.23408732083944
H         7.50905410415959    4.79864450643588   10.24876750253296

