120
CSD_code = IRECUE | q = 0 | S = 0 | Stoichiometry = C61H50CuN3P4S | MND = 4
Cu       10.89212859158396    8.43084056224154   11.40737807442429
P        11.90360166973827    7.54973127569898    9.61818978927106
P        11.03054213968444    5.37808587727492   11.15949102340767
P        12.13196174624544    7.58694956783172   13.16571378618363
P        12.57652087476425    8.50849604989262   15.88629464047583
S         7.66812810500776   10.61824654077970   13.61006622349908
N        11.49389198347671    5.88933038949432    9.57221817200288
N        12.18480033927161    8.91064904951793   14.24625792600193
N         9.38301542874462    9.38457083170551   11.84304998855879
C        11.47898994051281    8.08571914267639    7.93047618166494
C        12.37043546542207    8.65187076251391    7.02716909355321
H        13.41443745142599    8.76063554129945    7.28571321224994
C        11.92287928869816    9.06082864950744    5.78367456755733
H        12.62018626460775    9.49412829605716    5.08139701322407
C        10.59080665914602    8.91409865519207    5.43561403116162
H        10.24895756097520    9.23251521591821    4.46214661579234
C         9.69580891965213    8.36367113355290    6.33950803344808
H         8.65479011985405    8.25462901504781    6.07408012381143
C        10.13479922521954    7.96139441303608    7.58498368371946
H         9.43921167260880    7.53928295522825    8.29833724492898
C        13.71936390321071    7.62073933759051    9.68912701178760
C        14.29593541778242    8.89061296945439    9.67751056211147
H        13.65851573699708    9.75574230243567    9.53829954028690
C        15.65997668037844    9.03494460364637    9.83954408754437
H        16.10477224938514   10.01939825241939    9.82565082381562
C        16.45526816651405    7.91429333257835   10.02475088480454
H        17.52219006798230    8.02578545572930   10.14802815833682
C        15.88282333751412    6.65400234535051   10.06424226753418
H        16.50221753433340    5.78337610773729   10.22037615015880
C        14.51618086273349    6.50495946791775    9.91325570439527
H        14.06616656012637    5.52331516833153    9.97164763864527
C         9.21593709583827    5.10754793510228   11.01035036669629
C         8.55608228431715    3.90831130173008   11.25537895544398
H         9.11447080113806    3.01228011306580   11.48574422253610
C         7.17501689482412    3.85255264026637   11.18448434345411
H         6.67116090917083    2.91504298437587   11.37139908810760
C         6.43960476708807    4.98552672430484   10.87876139238577
H         5.36197987112862    4.93431879761800   10.83108270960568
C         7.09063241018149    6.18522662023508   10.64083515082700
H         6.52700817464269    7.07768725003460   10.41347481684271
C         8.46858858248818    6.24485018984619   10.71338251641614
H         8.97804630061250    7.18982288540922   10.55610659589514
C        11.64450666419439    3.66461762980876   11.27117951096158
C        11.34927637130322    3.03405556428898   12.48294849861254
H        10.73415113249730    3.55213632985510   13.20899058620126
C        11.84362665142833    1.77530175384815   12.75992663975016
H        11.60145797393071    1.29590190196246   13.69720594381803
C        12.65810162776013    1.13541658276635   11.83793143485962
H        13.04658340492270    0.15050116795139   12.05060368335074
C        12.98309139822338    1.76869688919785   10.65112367188877
H        13.62932788231372    1.27956607551965    9.93660712230136
C        12.48979058841639    3.03165080797691   10.36867092958319
H        12.76243380790072    3.50859252654101    9.43961149030689
C        11.17489691302450    6.40021890721710   14.16947874691598
C         9.80176354184959    6.40016927265876   13.94130832460689
H         9.39387768341362    7.06232381196708   13.18622479673334
C         8.96677036693210    5.58878747403807   14.68523035603713
H         7.90283717108040    5.59739698464856   14.50029095267824
C         9.50131154358736    4.77214081175220   15.66868097850504
H         8.85313191207403    4.13829399702200   16.25588623908432
C        10.86661322421619    4.77172889208311   15.90314598671225
H        11.28143807269581    4.13917397705933   16.67460155608095
C        11.70703324785630    5.58079458023332   15.15817296282537
H        12.77165975896960    5.57271277527448   15.34654546188120
C        13.81378677786335    6.89863305238002   13.26503854855582
C        14.03394469071306    5.54210625432916   13.04225836859634
H        13.19173900498926    4.88204338069310   12.88960172510564
C        15.31915141110953    5.03614788145399   13.03881920375932
H        15.47577046481686    3.97834889156778   12.88072250956625
C        16.40037397498137    5.87975329208887   13.23890226107640
H        17.40462247689518    5.48178442865192   13.24441069410473
C        16.19083555472992    7.23584878760614   13.42688594658290
H        17.03153145798473    7.89881868254857   13.57207086312213
C        14.90598326902172    7.74412484605393   13.43036165704479
H        14.74534581308408    8.80427495133945   13.56873331496509
C        10.92558809293733    8.32107600178795   16.66536993622487
C         9.72312029761606    8.62431003646597   16.04211460692681
H         9.70811223188313    9.03438503535448   15.04290430670149
C         8.52646014821790    8.39715304592209   16.69731557192879
H         7.60012503612311    8.65335201081246   16.20518511543244
C         8.51931215037214    7.85053904453858   17.96886217943920
H         7.58273759747461    7.67422327496065   18.47756823785715
C         9.71525622167005    7.52122166805422   18.58712855799161
H         9.71309262882998    7.08352046334486   19.57541212735179
C        10.91197841494597    7.74883301693241   17.93535861851304
H        11.85231049903642    7.48700181256069   18.40531623364532
C        13.07112580187155   10.15554325845346   16.52455210811404
C        12.54389935541995   10.68790931948998   17.69606486069918
H        11.76244236085185   10.16140348210337   18.22541316232186
C        13.00150361510841   11.90082675236690   18.17845411509620
H        12.57596118552570   12.30991053329984   19.08341034293368
C        13.99441868975047   12.59164766076856   17.50534706467174
H        14.34396719392963   13.54201284314878   17.88079790847523
C        14.54113538675433   12.05628051428230   16.35091183443868
H        15.32197881030959   12.58611160681260   15.82464579174031
C        14.09190792662415   10.84141168638715   15.87155704118171
H        14.52993481802937   10.42717509505944   14.97470450476754
C        11.40516531232373    5.17016885612787    8.36231843184145
C        10.37370774275903    4.26875412919839    8.12440780972658
H         9.62061985738440    4.10677261618146    8.87893054278094
C        10.30948741246501    3.58625097324043    6.92384820487744
H         9.50083360080846    2.89098003257162    6.75418986924032
C        11.26310726360624    3.79628864630297    5.94302704845807
H        11.20408315703562    3.26762531766233    5.00397744427488
C        12.29768791881166    4.68587382607116    6.17906350251449
H        13.05549325373233    4.85042391349002    5.42744800355496
C        12.37476785580313    5.36294306325227    7.38036215746464
H        13.20013127575644    6.03310933832193    7.57319048047644
C        11.99295801353517   10.20017784314711   13.71662786398599
C        11.28513041197465   11.18556770508396   14.39563316940408
H        10.86378612535543   10.97772236066160   15.36707346185176
C        12.52243157753127   10.49076585965549   12.46163797620401
H        13.12128964622760    9.73616248645791   11.95907392734991
C        12.31965176268128   11.72861646301277   11.88182805770095
H        12.72768372523449   11.93579072184041   10.90262718363365
C        11.60340507267776   12.70069390073257   12.55734558556932
H        11.44060277885342   13.66738341673241   12.10548967525105
C        11.09732068651593   12.42557222853561   13.81626115549456
H        10.53297051270431   13.17573451329322   14.34917703512483
C         8.67441864613210    9.91509980723995   12.62100381378957

