100
CSD_code = IREDUE | q = 0 | S = 0 | Stoichiometry = C57H18F20N4Ru | MND = 5
Ru        3.34054819747997   10.96564377315589    3.63878497411605
F        -1.67463621726028   10.24763561349045    5.93882480880601
F        -4.20550028510607   11.02350200296627    6.52367506951343
F        -5.14330037729212   13.41491625861674    5.60661312714419
F        -3.52447998926276   15.02193887823825    4.10892079417104
F        -0.99253637861311   14.24742570222251    3.54689663304793
F         2.50493474706777    7.35551199450166   -0.27419604476994
F         1.74461145360295    6.41973984512639   -2.69593748514068
F         0.69207907906136    8.12555147637503   -4.54921264466605
F         0.41700760190761   10.77339128827852   -3.94648019442674
F         1.18887511141492   11.70471220726486   -1.53887239383490
F         7.46030292934574    7.47765939578284    2.07231066424759
F        10.04768113768028    6.97192268827429    1.44626175786656
F        11.90403828294355    8.96338365932948    1.60876502519783
F        11.14563405092698   11.46351222305767    2.39577845901700
F         8.55455802363296   11.96500817048090    3.00253584390726
F         3.05145060184673    8.90369955498221    8.58601219506394
F         3.55276338798243    8.65956924509820   11.23982865899101
F         5.20618440410543   10.43908085058073   12.48178850142050
F         6.34145807551933   12.46323472183964   11.04639930838918
F         5.82149295200069   12.70808917055464    8.40417633886909
N         2.32112510109540   11.30018071819882    5.35912736104906
N         1.58337978948452   10.98274861884260    2.63143129284420
N         4.23609916448943   10.12570975002752    2.01940575930405
N         5.01037431884270   10.61717740958908    4.71399318565102
C         2.82050730594541   11.26159047154396    6.62730692451064
C         1.82334821657742   11.68895267109805    7.56188358544818
H         1.95650109348164   11.76975866496934    8.62291003733719
C         0.71399456803758   11.98680379047753    6.84112611205306
H        -0.22376452539996   12.35423352039882    7.20885637765239
C         1.02591596554867   11.71444573082519    5.47083994975754
C         0.11419247205633   11.79931309076098    4.41583274168110
C         0.37980547118262   11.40741889681836    3.11017131640919
C        -0.63710831670026   11.25869863397942    2.10005859752727
H        -1.67322221617593   11.50711735601199    2.22133030884348
C        -0.03757782525105   10.71301353502088    1.02309969181695
H        -0.49387724472334   10.42782049588402    0.09636747381629
C         1.35719165192889   10.55986820901965    1.35588982856857
C         2.31137734875987   10.03188205765562    0.49517786421713
C         3.66761808166132    9.88418326895455    0.80723408673462
C         4.67764139031358    9.52786207055125   -0.14440192948768
H         4.50968617160447    9.30304743330344   -1.17938389314108
C         5.86444832723006    9.56663733014680    0.51038610903982
H         6.83891070135672    9.37700256550791    0.10527518615123
C         5.57683979317527    9.92249403115629    1.86698988709362
C         6.52787281956184   10.02016675827626    2.88534948575903
C         6.23575453166666   10.29152791988483    4.21716523095852
C         7.17975927640821   10.12777414930930    5.29378033699222
H         8.21193481136397    9.86056453527583    5.17918193638422
C         6.49969653526984   10.32567582357586    6.44153038903541
H         6.87070050782158   10.25616546606484    7.44484144953236
C         5.14463037347960   10.64601002976085    6.07050516678967
C         4.12823328675205   10.91467566220013    6.97851309803737
C        -1.26874306954758   12.23072399972545    4.73415578669607
C        -2.11517496018077   11.42719441938034    5.49546158694794
C        -3.41735535941202   11.81428358770381    5.79479968350606
C        -3.89855861418091   13.03385242878694    5.32593143852583
C        -3.07160894394959   13.85170571385035    4.56125300998714
C        -1.77304681154726   13.44366501558773    4.27337269363087
C         1.87597304376842    9.55637528200785   -0.83772980692677
C         2.00564374833075    8.20766633962549   -1.17231569297601
C         1.61113612232677    7.71552710209036   -2.41155295869526
C         1.07142565586274    8.58301704412233   -3.35737696692421
C         0.93060188352836    9.93208922079319   -3.04684671770397
C         1.32902609144358   10.40271927866606   -1.79941350475029
C         7.94074577875478    9.73635158088649    2.54234206556178
C         8.35320981645803    8.46735662275301    2.14053353960117
C         9.68094292630583    8.19660517278382    1.82507114839456
C        10.63059860440646    9.21122568337640    1.90989604587183
C        10.24182144688555   10.48572741922941    2.31308451232926
C         8.90941375927011   10.73377443347308    2.62608230475189
C         4.42778123562970   10.80727695869481    8.42679259066697
C         3.85594693753744    9.78534437938993    9.18322297439820
C         4.11054725492320    9.65015661526444   10.54381574206433
C         4.95549598322049   10.55642511823681   11.17924451574129
C         5.53523094025512   11.58681498227175   10.44505273501220
C         5.26744079967968   11.70106218124471    9.08458070868782
C         3.85559653906861   12.73825726261586    3.12074637777882
C         4.97344837067253   13.45708724891703    3.69193834723235
C         5.08294961531904   13.65037650470366    5.07651243943845
H         4.27975450371209   13.31188494504790    5.71473836774890
C         6.16632702501882   14.31884987445809    5.60942447516441
H         6.23203701593898   14.46645607424104    6.67569225039340
C         7.17135541952516   14.79386332355061    4.78123861933220
H         8.02631262643114   15.29955929576137    5.20278598081743
C         7.06655796508792   14.63165172463507    3.40910899710219
H         7.84099691964418   15.01032388246116    2.75990068604144
C         5.97323161606852   13.99002775322058    2.86484138367384
H         5.89446984605227   13.86908533238300    1.79564619233800
C         3.15182971368063   13.34861589450971    1.99606359378787
C         3.56902575628804   13.18140567108893    0.67357241875175
H         4.43751940388291   12.57413706962835    0.46041285799131
C         2.87593507105410   13.78814298896807   -0.35707070662425
H         3.21267508758757   13.65964632463432   -1.37459145726254
C         1.75155924186030   14.55115977300798   -0.09276519253419
H         1.20855608541533   15.01018418446962   -0.90397157821035
C         1.32924546666772   14.72296323281071    1.21524384259586
H         0.45482142370633   15.31657964716893    1.43229683639102
C         2.02820203822563   14.13983603286419    2.25375207975896
H         1.71454324349131   14.28521599358890    3.27757740861685

