104
CSD_code = IREFAM | q = 0 | S = 0 | Stoichiometry = C58H18ClF20N5ORu | MND = 6
Ru       -2.10427920362270    4.34069925649347    4.89113258157068
Cl       -7.56418968519480    2.66113429379764   11.70011005625166
F        -3.28812265050975    5.49864503113318   -0.09853159138224
F        -4.41676675254498    6.73178126446496   -2.22450263921190
F        -6.26157096963960    8.70571755721670   -1.83748163681821
F        -6.96380455421797    9.41928677282006    0.70265010942102
F        -5.84781724735900    8.18033036417089    2.81694467360599
F         1.02987457011032    8.93377166737135    4.80420569114611
F         1.97501761168117   11.24109076717184    5.87429039115665
F         1.13229232869565   12.04553772856393    8.33812792376139
F        -0.66998319646053   10.53285943772818    9.71904660841154
F        -1.62244857661571    8.23330782046803    8.62953296864470
F        -1.08568264112061    1.10492251672435    9.23522444940132
F         0.51088995577945   -0.32626580907641   10.89974390367497
F         3.21086196818429   -0.36143657222007   10.49744517652761
F         4.29093051470704    1.03654813049068    8.42219264215090
F         2.68274299854022    2.44459024273914    6.75192933157368
F        -5.36367644659534    0.15464416435112    5.68439092227046
F        -6.69012834085064   -2.14307119125421    5.09045165750669
F        -6.39277364993006   -3.28466859115685    2.63026537520005
F        -4.76537598845480   -2.12070677146261    0.78076222862824
F        -3.43372265728550    0.16372495562129    1.39133220953825
O         0.07259393057407    4.06828857860098    2.85009778651521
N        -3.52548089750204    3.86432664971557    3.50781243441293
N        -2.34130395870702    6.31757918146810    4.43631858498936
N        -0.75656612345756    4.82704108055626    6.33624346606329
N        -1.91358758186651    2.37112948234438    5.37827206164070
N        -3.60144322440077    4.41750232652929    6.35462763217682
C        -0.76694561278494    4.18819358794324    3.61457577954481
C        -3.51644004054079    3.82204167212757    7.48644018175445
C        -4.53978294967201    3.60700867333001    8.49854754973733
C        -4.38759517973623    2.48202679346877    9.31975163079824
C        -5.31656695301252    2.18010395724631   10.29227143041204
C        -6.40429733935429    3.02282588782028   10.48209893938989
C        -6.55522597047259    4.16314683047093    9.70466187226904
C        -5.63437823210402    4.44909895039197    8.71733412070498
C        -4.83820620094928    4.93577729236324    5.91116075020454
C        -5.04642587509111    6.31128065536048    5.85225314096758
C        -6.24641352650832    6.80261637159732    5.37286895243062
C        -7.22980823547231    5.93444072511507    4.92843493362708
C        -7.02669999369774    4.56616680651175    4.99663758328227
C        -5.84388157146393    4.06196439137312    5.50318922342420
C        -3.89287234769150    6.09384127981520    2.55442088214292
C        -3.06757908524015    6.82847954935902    3.40817627765639
C        -2.87806096632971    8.25445263742967    3.34642661764847
C        -2.06103261908910    8.58640375092953    4.37076371364243
C        -1.70754625455561    7.35866367877988    5.03472035675802
C        -0.84041442549851    7.26541978695196    6.12428525895261
C        -0.39758685108186    6.07984860134659    6.71390026383067
C         0.58110952235837    6.00548466953059    7.76694453352949
C         0.80692263337874    4.69257731989413    7.99916218320151
C        -0.03430546553912    3.95885649441057    7.09051611809999
C        -0.12389248875934    2.56525771763890    7.03949650044854
C        -1.01051473927200    1.83704447755939    6.24141558739583
C        -1.13004097508178    0.40301312850765    6.23759230373318
C        -2.13777112916203    0.09726566612551    5.38856616419573
C        -2.62329048049830    1.34149063929841    4.85313591531277
C        -3.64763342191098    1.45387251633741    3.91032244410571
C        -4.04968781421635    2.63284007310939    3.28227637910798
C        -5.07946739759432    2.72144140604101    2.28029406996313
C        -5.12456672289822    4.01243781834325    1.88256162368440
C        -4.13865778944645    4.72185487616029    2.65557820794390
C        -4.53436652108427    6.80024574239048    1.42094314904967
C        -4.19562189674943    6.45290642653365    0.11200331443258
C        -4.76586349204323    7.08535511607286   -0.98769628317607
C        -5.70576982047981    8.09402795938800   -0.79328261964551
C        -6.06052849368488    8.45726560511861    0.50200502702885
C        -5.47511267641277    7.81293152061054    1.58727393972836
C        -0.31668372801516    8.53135410498037    6.69377804477135
C         0.60226361480471    9.32051702734727    6.00708322306255
C         1.09485344597508   10.50307542873288    6.55083519464797
C         0.66616893866670   10.91547121422220    7.80982393497290
C        -0.25259622659515   10.14180741196587    8.51403447473184
C        -0.73085628708772    8.96391188388539    7.95084970746086
C         0.76049771919308    1.79685303734997    7.94746694846906
C         0.23621100086414    1.07812754404757    9.01862673202868
C         1.04573162141607    0.34933097791432    9.88159751063643
C         2.42313139227408    0.33272800538267    9.67866320977489
C         2.97268534546984    1.04811803018551    8.61780407807118
C         2.14147817263897    1.77061726936820    7.76707899701458
C        -4.36603795694684    0.20679110600801    3.55305778581831
C        -5.20323416513765   -0.40841807301532    4.48038178070248
C        -5.89036277574909   -1.57974558490916    4.18374819368666
C        -5.74130816489841   -2.16187049422886    2.92758033439351
C        -4.91018794054708   -1.56457751063887    1.98340438274945
C        -4.23377701775958   -0.39060334397816    2.30232992108673
H        -2.55529892549975    3.37867475340323    7.73504547221473
H        -3.53984776034218    1.82947177983627    9.17621202711537
H        -5.19895864490009    1.30311464826392   10.90849826930184
H        -7.39147753825029    4.82269239292838    9.87404915878828
H        -5.75594989857733    5.35025552977871    8.13897221878291
H        -4.27943501738547    6.98340465887662    6.21039107141999
H        -6.41068624969017    7.86789649411827    5.34171571506731
H        -8.15712867866794    6.32568241343438    4.53985508097236
H        -7.79622904615246    3.88529370955336    4.66568983881462
H        -5.68381418074745    2.99598856133337    5.58253240854557
H        -3.31303540369319    8.91514346724830    2.62354662050085
H        -1.71969164604826    9.56581546984335    4.64224473944083
H         1.04172574584264    6.84353706330236    8.25203237425787
H         1.47379031169771    4.26153762208493    8.71981297354278
H        -0.52291755709331   -0.27743061622094    6.80165597489787
H        -2.50380963437907   -0.87741818202764    5.13134473310615
H        -5.68150010897785    1.90660719155000    1.92904029145211
H        -5.77767288821151    4.45026361988049    1.15335356153927

