89
CSD_code = IREFEQ | q = 0 | S = 0 | Stoichiometry = C54H8F20N6Ru | MND = 6
Ru       16.27237772335677   -2.22930202556513    3.08388152654955
F        18.72910266188343    1.13985326045946   -0.48352384875592
F        20.34361164205792    1.74425180960852   -2.57633537326946
F        21.66458796170949   -0.24272070502901   -3.89496218422103
F        21.35523071841771   -2.83418726025237   -3.10718586663771
F        19.73202734769980   -3.42951106955317   -1.01775586790197
F        11.89151698764504    0.89362461075571    1.73116199324667
F         9.71362717323206    1.53823000956826    0.24617511946938
F         9.01902870151749   -0.00449854291591   -1.89133493603890
F        10.51192247889264   -2.19539830036385   -2.52730712475338
F        12.68015050854741   -2.83861790355409   -1.02811703022560
F        12.78633450260007   -1.02957009376438    7.12719906393265
F        11.16319992664088   -1.62624522096607    9.21713255184706
F        10.89763221365037   -4.21160507972903   10.03943411084248
F        12.26288337257117   -6.19233213215742    8.75502697186066
F        13.87709406378363   -5.58653355684780    6.66193836415949
F        19.90006195217687   -1.61056030321677    7.16478099971506
F        22.06682517993150   -2.26433887447830    8.66127064631757
F        23.53954318348095   -4.47091899051408    8.03221081669761
F        22.82598987315323   -6.01836860252976    5.90439976295744
F        20.64835224286409   -5.36440958443319    4.42346727189710
N        15.95788557717848   -1.52316783645024    1.16424947780836
N        14.27736447364326   -2.13848962613351    3.39402062943657
N        16.59107860763310   -2.91051040660447    4.95971179310859
N        18.31367315906806   -2.32495805002653    2.75373794614334
N        16.09084276983497   -0.09760806507167    4.42438155087043
N        15.62106145313691   -4.64680099576179    2.81382062519785
C        18.30620562116913   -1.48828642785287    0.44353416508799
C        16.93711369972188   -1.28932383425695    0.25250823756557
C        16.34044877226304   -0.81939242726015   -0.96977077114645
H        16.86864908996243   -0.56554413465802   -1.86726140001404
C        15.00440782399452   -0.76967635035871   -0.76404066422509
H        14.24746326193375   -0.45297533678386   -1.45375319919860
C        14.77656592409676   -1.22584954071375    0.58045749309551
C        13.52615741770970   -1.33968230769695    1.19547372348151
C        13.31282503358505   -1.77234303428114    2.50104469101014
C        12.01605854322712   -1.93611460947082    3.10045951661302
H        11.07807788129033   -1.74243209227809    2.61898542051524
C        12.21940835931071   -2.38883768238806    4.35800717210670
H        11.47630763480835   -2.63380684112130    5.09100542056025
C        13.64253589679584   -2.50577649970650    4.53599710952533
C        14.25546928583774   -2.96417349410745    5.70261600635320
C        15.62670192091735   -3.14508548780932    5.88560392705680
C        16.23100981757719   -3.60216921546328    7.10901758472149
H        15.70668014341473   -3.84865000121058    8.01103330044894
C        17.56481817789379   -3.65095998072766    6.89473968883938
H        18.32596497575749   -3.96149607351461    7.58264282053686
C        17.78755881946347   -3.20582588004234    5.54556397003817
C        19.03961905743983   -3.11280037811872    4.94476934563284
C        19.27209154582883   -2.69374057446113    3.63121058246911
C        20.56612168273374   -2.54682978968094    3.02170012442861
H        21.50655110784809   -2.75179508700371    3.49350149781104
C        20.35416580013494   -2.09308146002663    1.76501050101311
H        21.09424211076126   -1.85926476619532    1.02562432559659
C        18.93089717284102   -1.95982531704712    1.60038911178840
C        19.19204288910769   -1.15936862132389   -0.70162390072493
C        19.87929918811776   -2.15758328379162   -1.38861340073048
C        20.71124007547674   -1.86056648624449   -2.46423337807495
C        20.86996889608650   -0.53757148006954   -2.86870825011572
C        20.19372285732696    0.47590899739813   -2.19445223161129
C        19.36403037622954    0.15695772268369   -1.12367697919756
C        11.96263595581896   -1.75747334467627   -0.71325969235365
C        10.84953009055747   -1.43778047062695   -1.48409249826892
C        10.08513389705579   -0.31973491916797   -1.15989246652463
C        10.44082624199389    0.46652859059363   -0.06689678553478
C        11.55673433551280    0.12692076453626    0.69194750954978
C        12.33600956363894   -0.98600338202136    0.38481373849027
C        13.37011870520097   -3.29360102947238    6.84648685437415
C        13.21996219893965   -4.60684079604329    7.28612736724271
C        12.39096391715860   -4.92655918271966    8.35686309951297
C        11.69238778142009   -3.91660314353017    9.01318653610390
C        11.82846794111688   -2.59662161919898    8.59103760971216
C        12.66046895404145   -2.29908367585516    7.51604051482515
C        20.22362002456268   -3.47379149407714    5.76109473314119
C        20.99317834236096   -4.59430902811261    5.45693706636135
C        22.10845885833506   -4.93928006497438    6.21429473857161
C        22.47393902189332   -4.15052031064461    7.30223865245533
C        21.71999098139385   -3.02440407742434    7.62289905825690
C        20.60772075131065   -2.69912595342170    6.85322135665565
C        16.08149029599397    1.03949865039842    5.02313019419282
C        16.80693126390748    2.01088468417496    4.48078235268457
C        17.50415914168691    1.86217595091076    3.39664048035761
C        17.53153653021699    0.69933205542809    2.76030673673996
C        16.79285295011006   -0.30375574410488    3.30498011680438
C        15.35181188430734   -5.88059919088342    2.57007224040972
C        15.89517590293902   -6.40772888187164    1.47806843385745
C        16.66725171529142   -5.74774752896434    0.67097494061882
C        16.95828094971356   -4.47565234299607    0.90122198724896
C        16.41063448655004   -3.92116920414449    2.01423457300579

