44
CSD_code = IREFES | q = 0 | S = 0 | Stoichiometry = C15H20Cl2MoN4O2 | MND = 6
Mo       10.25482452871901    1.80458296294379    7.50680111892297
Cl        9.30793192980869   -0.28352480709447    7.88759158171601
Cl       11.08183857381820    3.58265913442543    6.20599749487598
O        11.63338583049993    1.61049335983603    8.37849371127499
O         9.19493727415388    2.73080503459373    8.35353444429587
N         8.68869039146048    1.73456578385145    5.78225394431473
N         8.91171870789129    1.73975376875611    4.44972833300592
N        11.22592011224457    0.51381498596040    5.79578541536035
N        10.97690423748395    0.59073978149401    4.47004451468309
C        10.24848836729715    1.69761143979116    3.91536188317230
H        10.76901955203426    2.63725620456110    4.17745694427400
H        10.18769981846751    1.57434466658221    2.83312942765742
C         6.71714666892172    1.75125447238988    7.27649520305874
H         6.97137958528980    0.80508934992279    7.75736945596114
H         5.63944508345927    1.82146935562580    7.17190944082963
H         7.08645827774541    2.54874123047998    7.92194368269547
C         7.37036908661040    1.82894238993270    5.95132771181951
C         6.73370729472320    1.92105741406066    4.69220101905964
C         7.75616794526101    1.84769481912926    3.75883176139871
C         7.69833145033557    1.91062498296090    2.27669753135455
H         8.11385209026316    1.00921208543573    1.82548332242978
H         8.24858293879201    2.77380036589124    1.90341902097575
H         6.66346236798972    2.00573208571533    1.96180365709426
C         5.31318567545222    2.05994552660617    4.40006071698673
H         4.95122928310644    1.46656118938320    3.56932235832627
C         4.48506699417280    2.86028406749476    5.05453988422750
H         4.81964223919824    3.49502363886435    5.85680804498523
H         3.44269681720176    2.92351836656997    4.79404200987261
C        12.45021338300799   -1.00661653219713    7.31501468319250
H        12.54835442756892   -0.13480280683746    7.96351041159142
H        13.41368407847328   -1.49966406346588    7.20579129654556
H        11.74742758240319   -1.69590448551266    7.78533163635927
C        11.94486417051418   -0.58918114275824    5.98828125120606
C        12.17452469668375   -1.23410337963335    4.74869404883896
C        11.54131160269620   -0.44068611656866    3.80325653648339
C        11.42666121195240   -0.60964238245974    2.33253304552633
H        11.87673765074121    0.23170610895067    1.80527126967815
H        10.38341926709101   -0.69692200261367    2.02903886248398
H        11.93990474213727   -1.51796036624710    2.03184240416945
C        12.92378857387577   -2.44949787680328    4.48032406166613
H        13.39635952475792   -2.48749173272200    3.50649810778845
C        13.04989895334412   -3.47586209263934    5.30990804129435
H        12.57005572912421   -3.50173723712252    6.27138125239256
H        13.62941128322868   -4.34148754753489    5.03898945615290

