51
CSD_code = IREGIW | q = 1 | S = 0 | Stoichiometry = C21H19ClN9Ru(1+) | MND = 6
Ru        0.58657793827933    3.44751860944529    2.11511653939243
Cl       -1.63374581230809    3.40734042904244    1.45947342769635
N         0.28185923200519    5.33776262138324    2.68474690644306
N         0.03087780668419    3.19723524956084    3.91352048744273
N        -0.52451833412894    4.18044137256440    4.51359904568280
N         2.59816408202347    3.41813139243552    2.41256709236222
N         3.37076893574112    2.74837432173860    1.53474090251449
N         1.08630942920203    3.76781741565410    0.09895572028773
N         2.09175348291249    3.04689390281774   -0.42911789154854
N         0.74715382839339    1.48724185279801    1.56437164438894
N         1.81925970249702    1.09557308990884    0.84938128255418
C         0.46231114112586    6.48351131745479    2.03564135408392
H         1.03716449168022    6.43443535042559    1.11897244996023
C        -0.04756922558643    7.68526754674712    2.48795442845347
H         0.12179152617585    8.58669684069286    1.92237652708162
C        -0.78801175987927    7.70933803420020    3.66857765571072
H        -1.20847564691676    8.63389677228251    4.03070392620717
C        -0.97161946629780    6.53442954998027    4.36281933854446
H        -1.53181819064859    6.48231548312958    5.28110313324886
C        -0.42276122350969    5.35538050577308    3.84488894535394
C        -0.04923640959436    1.97728215516194    4.58181551260201
C        -1.20169009493000    1.64153576736555    5.29644789929158
H        -2.01375162970083    2.35109083169806    5.32915780199408
C        -1.29242390368824    0.40908917045303    5.91259842678790
H        -2.18897478677650    0.14612963648248    6.45191729403756
C        -0.23577429271693   -0.48623238145160    5.84357823900722
H        -0.30854585187557   -1.44631136844037    6.32998344651451
C         0.92146779292917   -0.14426161241031    5.15934790336540
H         1.75249286060178   -0.83234731570055    5.12748213109017
C         1.01828072308546    1.07844108213258    4.52462822366204
H         1.93416477711015    1.36516439017145    4.02375687630212
C         3.41237557485079    3.92574791003563    3.32292116637669
H         3.02951828954207    4.50298188588079    4.14445613226389
C         4.74035296302125    3.58170829076336    3.03119085899018
H         5.61313947599899    3.84906335753404    3.58858504479639
C         4.68227443876505    2.83350141012516    1.88522191816536
H         5.45398084076445    2.36799838676931    1.30772603381236
C         0.55770233812689    4.46412713944393   -0.88575507264717
H        -0.28343563991462    5.10872185950376   -0.71419760545623
C         1.23457050121902    4.19471834454417   -2.08542330639493
H         1.03121661703145    4.61146583006965   -3.04924388641997
C         2.20338425272786    3.28166731518163   -1.76087470204396
H         2.94795611535409    2.79926025747103   -2.36047606548917
C        -0.02655927633271    0.43076396617136    1.70459398868058
H        -0.95704502022141    0.49407623223365    2.23571830068664
C         0.55141615462789   -0.67782276936248    1.06603697040846
H         0.15439106263185   -1.66938747339145    1.01197818495976
C         1.72251736399326   -0.22069969992772    0.52398856919680
H         2.47833351360062   -0.71883796495559   -0.04802183701600
C         2.77393288330930    2.08173184432100    0.40236055416160
H         3.56099642901808    1.58833186409170   -0.18149191754740

