38
CSD_code = IRENIE | q = 0 | S = 0 | Stoichiometry = C19H12Cl3N3Zn | MND = 4
Zn        5.71004448776839    6.34699982898541   13.97876404883358
Cl       -1.50054020073014    9.31326449528353   11.27973013087799
Cl        7.18131214092470    7.73139999239201   14.84769446793012
Cl        4.53469997118993    4.69335857445208   14.82574130595019
N         3.79535700418124    7.03569578541266   10.28687369904278
N         4.31484162064353    7.14095250006973   12.58184289239649
N         6.62934008749135    5.85906806228522   12.09018956281334
C         4.60438232301871    6.85631821349791   11.29653016408268
C         3.11579767127991    7.58795656205891   12.89489181878613
C         0.89378020739559    8.41053686746585   12.09135585640820
H         0.59262478085201    8.67718192787421   13.09208639240977
C         0.05858377226414    8.62626314337167   11.02414839243923
C         0.44876192550858    8.30508325509368    9.71109726523714
H        -0.23976376805381    8.48823181377838    8.90109194131115
C         1.68754424882470    7.78066646619931    9.47155008672351
H         2.01573463213471    7.53926786027013    8.47355504197244
C         2.16293760160481    7.85066457005339   11.86819689643384
C         2.57623259615478    7.54808641233920   10.54102204665061
C         2.82983211787312    7.75307479601608   14.31817695329964
C         3.72241260797771    8.45198651687150   15.13267887356788
H         4.55967170256108    8.97253519746579   14.69023811434856
C         3.49857264454677    8.52743037858738   16.49509992478439
H         4.19327635532363    9.07025986418969   17.11717290508806
C         2.40161538411160    7.89405410881995   17.05650747282585
H         2.24177830391371    7.93528399767981   18.12336626811412
C         1.51353394146792    7.19955199895403   16.25075758442438
H         0.66594668781302    6.69457424059244   16.68883483842851
C         1.71708509072472    7.13249545106264   14.88586229435132
H         1.05105600922161    6.55254066741303   14.26414712791078
C         5.92204508817815    6.26254798086978   11.03485164748625
C         7.81811804724316    5.31190454439015   11.90054211726289
H         8.34876569876912    5.01177614980043   12.79324298721085
C         8.36376586873272    5.13095600196576   10.63833740869484
H         9.33673502723384    4.67944529082601   10.52975019216734
C         7.63265692996958    5.53986888961355    9.53304470339975
H         8.02488016364675    5.41306605538070    8.53524139818381
C         6.39030526056755    6.11613406347288    9.73147792652580
H         5.77487596767120    6.45501747514486    8.91450725162591

