86
CSD_code = IREQUR | q = 0 | S = 0 | Stoichiometry = C39H36MnNO7P2 | MND = 6
Mn        3.79909604491150   -0.18475771545700   17.52826756628965
N         2.24322013135545    2.10870352584684   18.65543754263773
P         2.81767699532516    0.19183598816764   15.51047810137017
P         5.02891649819278    1.41828806908854   16.55082803456177
O         1.55484614967902   -1.90951734404365   18.26630809152402
O         5.47647848921273   -2.16930260377096   16.19902843630527
O         5.37226683607847   -0.46581413025897   19.98744041629160
O         2.07962479032536    1.09550800780295   13.26665405200771
O         2.27944757009449    3.25943395039609   12.72358860938117
O         4.51509600799482    3.19313252720440   11.23168893679837
O         6.29582148943026    4.28222534427216   12.08093191302306
C         2.47194880715473   -1.27160827943117   17.99213272639821
C         4.80022272791874   -1.40854783522291   16.72304723536278
C         4.74653314660197   -0.34394922228616   19.02919697246259
C         2.83670119113721    1.21566109308040   18.19694198116535
C         1.52159604223370    3.04426005306262   19.42961979766421
C         0.11732767489427    2.47582239136677   19.65384687351863
H        -0.37844993228662    2.30342886549443   18.70066646297301
H        -0.47392599368662    3.17525005805884   20.23881681939456
H         0.17344935616931    1.52966014821173   20.18753080203801
C         2.26693789363380    3.21334810365335   20.75732188811833
H         2.35381987627336    2.25631966150108   21.26706863447408
H         1.72637471508244    3.90541106984215   21.39741609536511
H         3.26703338204397    3.60358609108811   20.57994095122019
C         1.46163223338107    4.37251164694462   18.67419654206433
H         2.46571614306351    4.73585175637139   18.46600127953554
H         0.93917376128020    5.11093566448390   19.27657732672906
H         0.93145053099790    4.25247523614567   17.73338354956527
C         3.88499589811028    1.57252451408630   15.21170658151156
C         4.00299596854276    2.25814054425357   13.97769569446462
C         2.72307362124085    2.12971152687386   13.23813361463061
C         1.04546058732919    3.20143438337874   12.02395261660717
H         1.20982627287010    2.78023555552886   11.03068594994174
H         0.69046913918210    4.22605653987798   11.94344773246422
H         0.32939211503659    2.58051629671391   12.56843104371246
C         5.06384447653294    2.99157952469949   13.54134606776335
H         5.92023635227453    3.13131305705909   14.18780897730861
C         5.20347741929236    3.47700690485262   12.19044297137032
C         6.56359311475670    4.76831167657048   10.78015242932234
H         6.71565282265473    3.93856153425355   10.08527433006324
H         7.46603190279616    5.37008324917765   10.85812367029071
H         5.72939016917197    5.37478568832849   10.41842313316287
C         3.02960107309188   -1.24035855370657   14.40495086179788
C         3.78412942416127   -1.15257413839688   13.24049574740079
H         4.17894766602342   -0.19821354338505   12.92098501306278
C         4.01844882093627   -2.28578738235142   12.48319101728038
H         4.60438622163945   -2.21096666743065   11.57855278331450
C         3.50835151225842   -3.51011674771863   12.88113125974164
H         3.69241251296851   -4.39232307015412   12.28576201247252
C         2.77537094663236   -3.60596494064324   14.05266993687259
H         2.39130568388120   -4.56262878216742   14.37637277286548
C         2.54923350146590   -2.47991931883176   14.82161206306979
H         2.01243021956365   -2.56574932658545   15.75833807906139
C         1.05111104904395    0.62600263534219   15.55261262562010
C         0.03563663390751   -0.29390822556114   15.32853256610818
H         0.27265579970643   -1.31416449904158   15.06859827528159
C        -1.28549661732742    0.11013874680940   15.40963455346395
H        -2.07491086974664   -0.60573964835047   15.23263993086228
C        -1.60014743338688    1.42600379363205   15.70361258235955
H        -2.63304287213774    1.73751587563989   15.75828608190713
C        -0.58655314288099    2.34816350525990   15.91324845052547
H        -0.83247604664645    3.38168880505775   16.11790630311685
C         0.73436561477431    1.94957676922943   15.84444493605439
H         1.53823374082345    2.66289007223496   15.98774085323240
C         6.71883532203417    1.17578262205935   15.92523982618257
C         6.87487825314594    0.30180222784866   14.85109183249050
H         6.00447779446949   -0.18155292247368   14.42450726168227
C         8.12960849547264    0.06397190202150   14.32707733963851
H         8.24404402747399   -0.61186124423886   13.49240656477042
C         9.23744078631240    0.69400601208753   14.87192740480978
H        10.21941527736660    0.51001213504066   14.46181020125845
C         9.08581982824925    1.56251823965823   15.94013040501824
H         9.94926774418056    2.05547221183753   16.36287140748934
C         7.83222169093643    1.80646774848340   16.47141409453174
H         7.71995037975142    2.48915344453200   17.30185239190211
C         5.15784341896391    3.01921039764347   17.40439262104465
C         5.66136665437740    3.03892147892691   18.70334542614810
H         5.96625031588591    2.10859951376426   19.16822132146934
C         5.76311082982227    4.23487574679013   19.38914211559320
H         6.15812086719476    4.24924887816065   20.39496046071969
C         5.35679724400160    5.41491986615218   18.78446908291929
H         5.43645209342828    6.34986386839902   19.31959556839328
C         4.84109367661868    5.39494533117626   17.49847690447806
H         4.51925581587814    6.31459869261454   17.03134453439708
C         4.73547129160782    4.20013926484760   16.80622784281645
H         4.32601233581211    4.18112610850485   15.80669423595020

