67
CSD_code = IRETIJ | q = 0 | S = 0 | Stoichiometry = C32H24N6S4Zn | MND = 4
Zn        2.03203811674015    1.34542369913942    3.93005715793163
S         2.34169572978780    0.38336392449585    1.79543178556379
S         2.98768421356317    2.08165617835539    5.95803956449234
S        -2.03902009446167   -1.74243914461902    3.73728273576520
S         0.13884638606427    6.08240234567353    4.22840386859348
C         5.36243110315942    3.97723157909446    8.99860494931301
C         5.30938016870847    4.18465643719156    6.57160291005434
H         4.76062900778476    4.38413579889691    5.66392303375155
C         3.22207194396308    4.38913542350419    7.90648023623758
C         4.62189478190083    4.17405646495871    7.80289649022561
C         2.62186267256408    4.48725209917639    9.13797668480129
H         1.55981552967195    4.67719646750489    9.19877456712652
C         4.70450369100397    4.04735718332631   10.24378572493891
H         5.28084570135443    3.89431020756431   11.14458173478487
C         6.74977372375589    3.73626174870182    8.90886664141904
H         7.30457222988334    3.57174378834198    9.82165022439897
C         3.36689928696605    4.31824770716239   10.31119513758948
H         2.86774379830557    4.38817466487040   11.26621918970670
C         7.38112539990914    3.71708454891471    7.69777579899079
H         8.44319262939791    3.52912019661075    7.63794049232765
C         6.65620412421190    3.95936484127880    6.52144292970217
H         7.17212352547195    3.96881914440793    5.57270581782543
C        -0.17990191681674    4.99511145323440    2.90988532945640
C         0.38107657152672    3.69613243976353    2.87763719594070
H         0.15714948103999    3.05166194247123    2.03887732396972
C        -1.00575070370047    5.57875873209230    1.97187788761982
H        -1.32118067602654    5.07114014770564    1.07788159958016
C        -1.37716994877198    6.88634096740964    2.30969633134375
H        -2.01515694668359    7.50196100137772    1.70060687673874
C        -0.83884131949423    7.29009353845819    3.49613191190675
H        -0.96333545965171    8.23894967977430    3.97961093350719
C         2.23585258641285    3.62479256885267    5.77847078224291
C        -0.03571097302968   -2.70274243506576    1.08413826388033
C        -0.85590370326616   -2.80556398464089   -0.01383621199810
H        -0.74870049105050   -2.10178967661329   -0.82684634244649
C        -2.02275251647625   -4.65911834424762    0.96220958256807
H        -2.80564873024671   -5.40294418604042    0.93313576118681
C        -1.84782151212376   -3.79087001215754   -0.07803211418183
H        -2.48473217239282   -3.84061954507198   -0.94861065300234
C        -0.13429622878587   -3.64457064788709    2.14283662137627
C        -1.17354799764031   -4.61177507028691    2.08689004830539
C         0.76014554821024   -3.67632740974060    3.23240004106148
H         1.59293540484970   -2.99184041869511    3.25223724630996
C        -1.32452741711109   -5.51458341752274    3.16046467519523
H        -2.12920438263339   -6.23502978621974    3.11895423640546
C         0.59169717012544   -4.57172755580747    4.25122600916566
H         1.28211533859380   -4.58321153045461    5.08173445801463
C        -0.47219038474374   -5.48535103360543    4.22726082384414
H        -0.59923685271535   -6.17561417136374    5.04844871159268
C        -0.40791818831762   -0.00896911559929    5.12061812541147
H        -0.19819402539462    0.60966885284411    5.98305494791608
C        -1.59275936361701   -0.78397714302609    5.11474685226229
C        -2.52340362040440   -0.89894546458818    6.12818320530537
H        -2.43009229222604   -0.38427250420663    7.06782073027647
C        -3.58032443920049   -1.75495329744469    5.79860589136185
H        -4.39906270631049   -1.97678714210375    6.45991970146998
C        -3.45453398377952   -2.27476484295119    4.54222671812566
H        -4.11983326306504   -2.95381081963746    4.04648542990852
C         1.06917410027583   -0.75617371788100    2.10542415154990
N         0.26445572866033   -0.79455546241939    3.12501449265327
N         0.91969634845587   -1.67249251629244    1.12197029946617
N         0.47804184319272    0.01559756989008    4.17207722712612
N         1.44503052036879    4.02189475930031    4.81692677141971
N         1.16730236608254    3.20820388363922    3.78975510914817
N         2.43654647965660    4.54461840082501    6.74749144357076
H         1.81197962427880    5.33951839676198    6.70223581866882
H         1.38661943925300   -1.44171839268092    0.25541807802478

