70
CSD_code = IREVIM | q = 0 | S = 0 | Stoichiometry = C30H34N4OPd | MND = 4
C         5.41801483195556    1.40251401071960    7.38977728684564
C         7.36839809750142    4.31777459355367    5.00634611929686
C         8.74499731058238    9.30783849306527    9.83068191586951
H         8.29312371295844    9.25170483912527    8.84308068725952
H         9.31952542137299   10.22908532191174    9.90101932366973
H         7.94606063216299    9.34147323547037   10.56744437870271
C         7.67610587493295    4.92942254836914   10.32289950697677
C         8.34924614247600    6.03143544770458   10.95537983048832
C         8.88186541069181    6.81803023451297    9.94937486668932
C         5.07710504194023    0.79577036570034    3.71597087017551
H         5.39571185252364   -0.23361753142675    3.55532201176031
H         5.62646162399871    1.44198399440381    3.03679889431854
H         4.01540950628317    0.86273069431942    3.47798075477149
C         8.53409393693852    6.20632636968933    8.69334550523948
C         8.79588582579692    6.55740766001091    7.36225173254933
H         9.38317958025524    7.44881926286002    7.18747714655994
C         5.07434039847810    0.76476634253255   11.96503224412523
H         4.12334652440905    0.52794681404656   11.48076457638176
H         4.86119774399571    1.06574353422362   12.99226526345913
C         9.37809130956860    7.35145983863904    4.34219506924151
H        10.40633441536212    7.30270818456259    4.69990488616878
H         8.94162026975739    8.28254276984660    4.70273782242415
H         9.38827671747874    7.36840224233524    3.25615320839090
C         8.36720754775367    5.86558554646784    6.22089336113089
C         4.10369206867290   -0.62576994958569    6.43144612485801
H         3.92001506946753   -1.06813510847995    5.45650910003644
H         3.14418324890638   -0.40081618922226    6.89710259405549
H         4.61682691338984   -1.35539101709020    7.05688995817040
C         8.59903710479177    6.18346866916919    4.83739422913181
C         7.13805236910307    7.03452960518568   12.88726230001643
H         7.05870982979408    8.00718195980883   12.40758742379089
H         7.15609867562282    7.18149996661659   13.96533428161215
H         6.25324598145493    6.45768642760016   12.62587387005943
C         7.97364672623095    5.21674743296866    4.07644531466931
C         6.07646726743789    2.36689619638521    5.51764816078930
C         5.33058948807110    1.21435356955351    5.12449507531166
C         4.91879188599015    0.61257852569608    6.29626461474853
C         7.91193369010440    5.08655315595618    2.59225597163074
H         7.49711951682006    5.98791113329460    2.14210420910884
H         7.28388776976554    4.24140289482875    2.32415126103497
H         8.90686062853501    4.92734395312116    2.17642953479241
C         5.26643864489382    1.18725921155196    8.76662401073375
H         4.69466942099887    0.31493461072921    9.05328943032442
C         9.64560387337332    8.09427809976598   10.07567809056252
H        10.45946923666623    8.10065297594439    9.34593822555633
H        10.08764446916505    8.17052999210971   11.07069775809014
C         5.78475821750985    1.98667288043769    9.79421655001927
C         6.69841491339436    3.22678617488722   13.19228745212082
H         5.92087480185529    2.76085748157003   13.80123802676943
H         6.66829694236055    4.29964568554007   13.37995550327139
C         5.73634261552501    1.88209756690638   11.22927752686196
C         6.43397527588557    2.95880647304151   11.74744050586075
C         8.06160931023680    2.66984477901494   13.61141665332696
H         8.07332527475180    1.58695693337829   13.51326711788331
H         8.27757726391161    2.92511823606131   14.64696669048408
H         8.84915862932203    3.07346889204508   12.97830671329593
C         6.91056533871019    3.73314915192713   10.63351359235812
C         8.40556030246162    6.31361843218578   12.42044671386342
H         9.27283567035791    6.93917353482437   12.64161415193300
H         8.52002614650517    5.38077337401262   12.97180896692422
C         5.95349057097863   -0.48856711466284   11.97998305302359
H         6.17905338439253   -0.80600688993370   10.96458084744146
H         5.44877976760165   -1.30191728620615   12.49714644890033
H         6.89321358539070   -0.28602971496086   12.48808858271967
N         7.81961286033183    5.09357040268160    8.99327657885889
N         7.61122378077441    4.71576147659199    6.25321606231977
N         6.11404173361152    2.45779095734014    6.84517962232629
N         6.49653447793149    3.10647754197147    9.51488426965040
Pd        7.00471358641780    3.83551789725989    7.85735004189648
O         6.65533194135397    3.22738220553096    4.65391952630982

