39
CSD_code = IRIBOA | q = 0 | S = 0 | Stoichiometry = C14H12FeN6O2S4 | MND = 6
Fe        2.50506087132765    4.48592821050977    8.93191130955280
S         1.78264636537407   -0.06126215750439   11.18831804848514
S         0.68297209406213    3.65214326343018    7.78289798827497
S         6.33036117531748    2.35712782044529    6.26369945040521
S         4.37014797567260    5.22292746318620   10.07757121303035
O         2.52319214001971    6.93794431625106    7.39105868994380
O         0.69271421606853    5.87060625588877   10.71683957618523
N         2.39138460008637    2.71956384726338    9.95685117008633
N         1.44347899912128    1.83108970726902    9.59479723388519
N        -0.29235473593115    1.23937832519265    8.24317602958712
N         3.87590014916963    3.55359888504134    7.73613507522647
N         5.18111492106821    3.65742678163966    8.06026593805939
N         6.81415093222626    4.44425731731915    9.44082101914719
C         3.00365422992285    1.09631461764579   11.62481912545681
C         3.76337535890723    0.64338950006652   12.68326739800912
C         3.36631381724751   -0.62013695139317   13.13924138466347
C         2.31382046548518   -1.12129014557994   12.43120051169678
C         3.13651550942589    2.33303391634457   10.94879678392539
C         0.62840278005719    2.13873818014233    8.63714563975994
C         4.64039039517882    2.23125330884350    5.87613536972180
C         4.44640400295332    1.48333880201653    4.73357072457056
C         5.64374491664853    1.01776144112819    4.17541770249882
C         6.73727118833594    1.40929492915341    4.89031011503018
C         3.64397366513050    2.85266501344611    6.66680878327647
C         5.51746008156081    4.37266188043714    9.08561158744823
C         2.54042957597299    5.95591045572305    7.97123480290445
C         1.40545482583620    5.29364247823735   10.03825792160820
H         4.57197002665647    1.21311327219123   13.10502047389594
H         3.83872117901146   -1.13549720650015   13.95671807591720
H         1.81912964141205   -2.06157535857028   12.57536953819233
H         3.90561094916090    3.01458726889972   11.28414459764033
H         3.47129827506569    1.28788077417089    4.32454368733164
H         5.69386967336332    0.41973824684038    3.28272015795539
H         7.76587066017470    1.19049975828359    4.68116891196660
H         2.61316432064349    2.74785055491777    6.35892180159183
H        -0.43653158420078    0.42576964140638    8.81663673174391
H        -1.02075258037015    1.54535200194813    7.62242146004166
H         7.08203573724951    5.13227422953794   10.12249646701453
H         7.50163318560868    4.08949935481208    8.79797750425387

