22
CSD_code = IRIJOK | q = 0 | S = 0 | Stoichiometry = C5H10Cl4O2W | MND = 6
W         1.94510906667765    3.79465055413730    8.24422911761598
Cl        0.09956747581242    3.07823540123222    9.44029850851281
Cl        3.11783975696199    3.96968500524412   10.23244459324324
Cl        0.96636165941970    2.91600084212633    6.34178985490702
Cl        3.98076988890973    3.81057354218578    7.14136850289590
O         1.55074328346742    5.39588901149899    8.05312714231904
O         2.46883130914347    1.56905866585356    8.50645733654408
C         2.46624798973689    0.86604485773769    9.76421805259965
H         1.92610711486323   -0.07991965685427    9.62331056440041
H         1.91713705392752    1.48764692931916   10.47826084814150
C         3.88910017032888    0.60386375493870   10.24769865946108
H         3.84763118368579    0.08736874080730   11.20600637671264
H         4.39109076843027    1.56248177965187   10.39295801468116
C         4.64134370123374   -0.22620260526203    9.21083990592728
H         5.68112738118544   -0.35194317453067    9.51115761921360
H         4.18992373812676   -1.21817643733787    9.13258007685457
C         4.56319384761996    0.48498039856154    7.86248394905482
H         5.09050796693718    1.43971729360208    7.91357578185722
H         5.01633290489733   -0.11771271550465    7.07623041427259
C         3.10446241077016    0.75128845368680    7.50484893211307
H         3.02431313541094    1.28761002075655    6.55423663757595
H         2.54655819245359   -0.19204066185057    7.43227911109648

