125
CSD_code = IRIJOJ | q = 0 | S = 0 | Stoichiometry = C66H52O4P2Ru | MND = 6
Ru       13.54149288056114   12.15432498574284   11.71647068381705
O        13.53100784514081   11.96128200426427    9.64598457257451
C        13.69161378263164   12.94815912437104    8.87726140041643
C        14.09728382079747   14.24733485817949    9.21229496766925
H        14.13121627059679   14.97065598182426    8.41217162302440
C        14.37806728521715   14.71808487405290   10.49876995739775
O        14.32465226397090   14.07064264343312   11.57994412634667
C        13.39684381416949   12.67658688215124    7.44006753690933
C        12.33753315748677   11.82794395812873    7.12985986007680
H        11.75087436481589   11.41254255157171    7.93616067716000
C        12.03639713945629   11.53520915198349    5.81324517691542
H        11.20639476702468   10.88246958726141    5.58333540450938
C        12.79772952923055   12.07730412606692    4.79092107173644
H        12.56651041058966   11.84715237779992    3.76092105891854
C        13.86034091220817   12.91360543462980    5.09261303013467
H        14.46044711379681   13.33060865561702    4.29632834669411
C        14.15934815563204   13.21546540910877    6.40883414245426
H        14.99949413105326   13.85406347139242    6.63860288329261
C        14.75726828083860   16.15227743455526   10.63979447950302
C        15.57938542549293   16.79463462383612    9.71990643658174
H        15.97363011727295   16.24521640309103    8.87782248965958
C        15.91468134571137   18.12395495127500    9.89967335097274
H        16.55802331614935   18.61690246011145    9.18477508303072
C        15.43116033968431   18.82513442306901   10.99256314163773
H        15.69112216009639   19.86532069927308   11.12545907615427
C        14.61975544884703   18.18827910535508   11.91687198374909
H        14.24401260457076   18.73037985368257   12.77263301160262
C        14.29109453236476   16.85680764731812   11.74629613445539
H        13.66002236736865   16.34845831436405   12.46209673820326
O        13.39665799647631   12.52405771047060   13.77321372434289
C        12.53596398730165   13.31312187076587   14.26051220491849
C        11.61784604341932   14.09881657408854   13.55217714499630
H        11.08974511324264   14.85878772502802   14.10516393389556
C        11.34430412284724   14.02879844613289   12.17977771563697
O        11.80809051345535   13.21014743054902   11.34360821288138
C        10.37690910039665   15.02145972442923   11.62791260275977
C         9.22850416612500   15.40212182456652   12.31434171917774
H         9.00402004405997   14.95948493308651   13.27376521486171
C         8.35872183959690   16.32135672091323   11.75693317509889
H         7.46510478337885   16.60842772620309   12.29279901956309
C         8.62673086817729   16.87241767074711   10.51437712000867
H         7.94736869891018   17.59475742271472   10.08555716881632
C         9.76271635086689   16.48919788689311    9.82099305026409
H         9.97304639394637   16.91170465381083    8.84910327509753
C        10.62847958833525   15.56237541405048   10.37015174209925
H        11.51476594171210   15.25250236102607    9.83424015504889
C        12.53582041833821   13.40020023168786   15.74958903456693
C        13.67409131747718   12.98942887117696   16.44107589677358
H        14.52948165270685   12.65151454225253   15.87645913307643
C        13.71454655727849   13.01971224683969   17.82129647886579
H        14.60950815969821   12.70510408035967   18.33881142295426
C        12.61017510389539   13.44875216993298   18.53829023361246
H        12.63712073497665   13.47367054664809   19.61804575299100
C        11.46497512010705   13.83703392018723   17.86243997810366
H        10.59489024934033   14.15770883403282   18.41768275554313
C        11.42386841416817   13.81184423969942   16.48063694766826
H        10.51328531431894   14.09276468680012   15.97446299791517
P        15.72375128973884   11.47225570866085   11.88996079650028
C        16.69469401897347   12.39773477487508   10.64236143768989
C        17.43071686013460   13.54831530710615   10.89507859046332
H        17.54033431881251   13.91544363901337   11.90511090957512
C        18.03037641680570   14.23184185396251    9.85075200945821
H        18.59372007211244   15.13097133511989   10.05645561846358
C        17.90654817413601   13.77327687171510    8.55067412235403
H        18.37293976809910   14.31375649449401    7.73932754631821
C        17.18582474276477   12.61771052765994    8.29292098321722
H        17.09009585778658   12.25026907064841    7.28118359588025
C        16.58051211507819   11.93719808604182    9.33109744133900
H        16.00677376074240   11.04017179094912    9.13422036394599
C        16.40563428325768    9.81659346567358   11.52784933295264
C        15.55810447239232    8.76828861512442   11.20380383497583
H        14.49129732143214    8.94858957209509   11.18037793183502
C        16.07010099404724    7.51781152387160   10.90555146751068
H        15.40025762042025    6.70660436776991   10.66062021776949
C        17.43900736711435    7.31268772414587   10.91885126057110
H        17.84340554480070    6.33756796562723   10.68994242978138
C        18.29455101006526    8.36399921086721   11.21353506736737
H        19.36369091281491    8.20763377128339   11.20710386909487
C        17.78365907828331    9.61270373461415   11.51169607232110
H        18.44869841018452   10.43762584433794   11.72997905181530
C        16.50945977747417   11.91711234156376   13.47248681059474
C        17.18424965485927   11.00831238396733   14.28110718635387
H        17.28913578256256    9.97915577961284   13.96900614799839
C        17.71284871023432   11.41726702587234   15.49342008458297
H        18.23925173359902   10.70616338149793   16.11435583461783
C        17.56837521180032   12.72893603432776   15.91390422371027
H        17.98739847219771   13.04459868845888   16.85835207948693
C        16.86491732024549   13.62992940217024   15.13008279630633
H        16.72320426709375   14.64626276925347   15.46914276547075
C        16.32604030456633   13.22453792930869   13.92224389027682
H        15.73227739448365   13.90957124642777   13.33141701895158
P        12.34476649946845   10.24236657926639   12.16063705877261
C        11.58639385958332    9.21997933223617   10.85303604683069
C        12.21257122450793    9.15584582727809    9.61279588620909
H        13.10580237082353    9.74101804133258    9.44442065753705
C        10.41449135958144    8.49679426269567   11.06653561823115
H         9.91658724492168    8.54985681807726   12.02567370049464
C        11.67655233334333    8.38010095843728    8.59923195195426
H        12.16395868272115    8.34364822745200    7.63548967500327
C        10.51458584851584    7.65944372271454    8.81850885478291
H        10.09359333555801    7.05475921558999    8.02830497155150
C         9.88490941723124    7.72036227203411   10.05223480422200
H         8.97557896752302    7.16176191410738   10.22282938585619
C        13.08126041839888    8.99190416568859   13.27685120767362
C        12.79405689548298    7.63370679742876   13.21122009287402
H        12.09063899999314    7.25992193277528   12.48133007826115
C        13.42102435443530    6.75187597760850   14.07430527740487
H        13.19751400328249    5.69628245299523   14.01505831211418
C        14.33236057275464    7.21429757970814   15.00855239084545
H        14.81882205028299    6.51991911584547   15.67799576768275
C        14.62117409207501    8.56763049347380   15.07870603180638
H        15.33062872324598    8.93543139793856   15.80594483416421
C        14.00531517942351    9.45050242345205   14.21208020132084
H        14.22931146784261   10.50876431962025   14.25050041166665
C        10.86997509187485   10.75630487639856   13.10417231739116
C         9.82070503184808   11.34242385330834   12.39762764943172
H         9.86716181208090   11.38331246633275   11.31668210543741
C         8.74141612427654   11.87945387716726   13.07201640332164
H         7.93510863215163   12.33852746609150   12.51772984402138
C         8.69992459946895   11.83840622928125   14.45726907979539
H         7.85746763721920   12.26224029583194   14.98514307326086
C         9.73835464508737   11.25613088879566   15.16398103768810
H         9.71044048339610   11.22613672587063   16.24378121373094
C        10.82448511118743   10.72122750186832   14.49310671124314
H        11.63996771376037   10.28059129435264   15.04977830080623

