42
CSD_code = IRIJID | q = 0 | S = 0 | Stoichiometry = C19H14Br2ClN2O3Re | MND = 6
C         0.94791182397590   13.86641672804426    1.11441185003277
C        -1.84431143202944   13.35644403176870    1.78723403741661
C        -0.11656734963456   11.35311099069756    1.30257433631014
C        -1.74208851822664   16.03810093396241    3.28398360091380
C        -3.00086626093959   16.37603224863282    3.77818111164854
H        -3.22927037194307   16.24683866848252    4.82575259483394
C        -3.96735438876346   16.83948692525065    2.90637002406593
C        -3.70177851874558   17.00650152400863    1.55632908038473
H        -4.47105223115572   17.37203666707904    0.89417350622214
C        -2.43834930103782   16.70483078122999    1.07828347267553
H        -2.21656546328269   16.84293407278225    0.03177241003864
C        -1.46211918210843   16.21880802032936    1.92904528680789
H        -0.47460958134030   16.00006830348002    1.55286887413851
C        -0.73960434509756   15.53038517865236    4.21285593941556
H        -0.71238704510958   16.02631649376469    5.18857187160870
C         1.01011321661331   14.20517317143204    4.99052516100836
H         0.54268773038803   13.44772340464689    5.63525094825010
H         1.30019978752954   15.06493346810603    5.60642508598110
C         2.13774939932179   10.07858278365823    3.03672290506047
C         0.89108795643919    9.48659138338729    3.22326032763328
H         0.13906354253953    9.97221034497018    3.82927058014888
C         0.63694824586990    8.25805849612061    2.63990157940112
C         1.58829231262124    7.61344184043959    1.86703099651824
H         1.36322886765831    6.66151764315568    1.41204450056789
C         2.82866238539474    8.20496739764412    1.69484406133968
H         3.57780760273951    7.70816104543991    1.09769940724241
C         3.11371254840663    9.41940100802773    2.28934382338323
H         4.08279961248343    9.87625736697543    2.15351710453968
C         2.46329964695225   11.35517976221429    3.66777933184780
H         3.39089863989478   11.35575091501138    4.25170447779967
C         2.23135835555892   13.58075247198663    4.31467735264749
H         2.66386883705018   14.30231142982265    3.60887277530040
H         2.99041713278090   13.31897067876665    5.06325749344019
N         0.05695398931637   14.57242058629251    3.96712779510388
N         1.78339657091201   12.42235086893925    3.57186520411614
O         1.57198426443910   14.44251843880357    0.33597826352463
O        -2.93879977369718   13.50631558065928    1.48865563108772
O        -0.17781896212673   10.47039204466030    0.57226041498059
Cl       -1.21744596033368   11.94693594655197    4.29547551921163
Br       -5.68903156229617   17.28095152166942    3.58262692457771
Br       -1.05686619788148    7.44185776165089    2.90492228839501
Re       -0.07135602312593   12.91526107078745    2.46135205037150

