79
CSD_code = IRIKAV | q = 0 | S = 0 | Stoichiometry = C38H29N9O2Pd | MND = 4
Pd        3.39857222286286    2.65947659444231    7.50187194217986
O         3.32159884723566    4.85920844775714    7.36923844372098
O         1.31921835969666    4.10093777161519    7.91862201557080
N         3.58294894118823    2.83890494526422    9.48018247762451
N         0.49843952965703    0.70745114594791   11.52724775911527
N         3.26300380740813    2.32936040385211    5.53740282003135
N         6.30061686570746    0.23373558934977    4.12791267322389
N         1.79356457838546   -5.10114173156323    9.33203845203596
N         5.31994669021837   -3.45316106048424    8.35647779986865
N         2.11222577521681    1.05183816225099    9.83993867142812
N         4.55924726931662    0.36260944871676    5.66067779517512
N         3.02405869101226   -3.43312014921020    8.27436549208044
C         2.73390236864496    2.19931374707990   10.30192866648082
C         2.50696163325177    2.68013909419835   11.59941236391683
H         1.79696168742240    2.16647511437741   12.22565030242734
C         3.18746044024985    3.79449874895611   12.03688798991028
H         3.01324372708669    4.17856945198876   13.03063861001668
C         4.11593659536007    4.40111868651938   11.19725102100220
H         4.68928697809184    5.25582925074012   11.51698758474749
C         4.27372987229639    3.88965301048733    9.92621927954916
H         4.96249009200264    4.34228423792885    9.21804350408398
C         0.82608541368175    0.66768999849847   10.24426233626245
C        -0.07396545580561    0.24734281110792    9.25687835975967
H         0.21972751865284    0.28084815350166    8.21911685896900
C        -1.33342308638003   -0.15746147954032    9.64291223821345
H        -2.05590879007046   -0.47194481465953    8.90393875412718
C        -1.66782861800027   -0.13349644434799   10.99240463918099
H        -2.64175626887176   -0.44541277613863   11.33390103734234
C        -0.71684146919166    0.32270547959772   11.88471613101255
H        -0.92156221710008    0.38348191173548   12.94570191907013
C         3.89552571873532    1.32792533896913    4.89832007145134
C         3.85085917147832    1.22717023851852    3.50489444897835
H         4.36632922656867    0.41737566182962    3.02010109949682
C         3.15405034136969    2.16903684805989    2.77573460727663
H         3.11660981933637    2.10327982448848    1.69908691043235
C         2.48084988426434    3.17899015711492    3.44998351416785
H         1.90768414009059    3.92261361367857    2.92071346206083
C         2.55765781368827    3.21258989897336    4.82810855113601
H         2.03687352085670    3.97653559252125    5.39455490299266
C         5.82259734288363   -0.10305585667141    5.32171397988105
C         6.58283225449794   -0.84488188492350    6.23950002935718
H         6.19503854570244   -1.08824725236880    7.21449247830363
C         7.84704070579517   -1.24666634832028    5.86536422185085
H         8.45502239312313   -1.81782264981182    6.55166164130012
C         8.33752607027035   -0.90469499620113    4.61002013400814
H         9.32192522647538   -1.20503796698612    4.28929858476021
C         7.51805821746152   -0.15417428270743    3.78960070045755
H         7.83714195462885    0.15878708691823    2.80361295322237
C         1.80031429313454   -3.95976136807392    8.65063864609182
C         0.61211735453525   -3.29144182931192    8.31465736254896
H         0.64394380007928   -2.38414704371925    7.73336318517416
C        -0.58579499167351   -3.82773220852975    8.73341264639741
H        -1.51535945431995   -3.33506755093860    8.48772988227800
C        -0.58583840001862   -5.01165118086295    9.46230598626113
H        -1.50430079043749   -5.45828436908890    9.80712595823943
C         0.63610908718318   -5.60549120410825    9.72008966228977
H         0.70610032170889   -6.53534777638303   10.26979624156937
C         4.20391996421574   -4.16788384459164    8.23616315226292
C         4.22432213305536   -5.55202262967347    8.03593063762854
H         3.30643569438887   -6.10250353228489    7.92643868130802
C         5.44845192444977   -6.18635078356943    7.98754172952873
H         5.49743032894450   -7.25449302961723    7.83203946070582
C         6.61294364789526   -5.44202325287569    8.13141111201313
H         7.58463738408316   -5.90862819917107    8.10257043890388
C         6.48257047449297   -4.07664204425971    8.30753882696476
H         7.34923364246243   -3.43804885784072    8.42125911340754
C         2.71023904216976    0.20798049582328    8.85938777197871
C         3.37736918713871    0.72912604832183    7.75428089898727
C         3.90393338862118   -0.15388421754299    6.81983891835546
C         3.75016418496406   -1.52872630895025    6.95648181293420
H         4.12636467543151   -2.20427336919690    6.20349856893682
C         3.13331660428118   -2.03109002952899    8.09413352941039
C         2.62642271765227   -1.16655972954556    9.05595272222871
H         2.15783462620429   -1.56566338296302    9.94373811452392
C         2.13720544289477    5.03000673810181    7.77867959368009
C         1.71425714154586    6.45763894894240    8.11084482286371
H         0.66433398871702    6.59754171762737    7.86963119750836
H         2.33136931398353    7.16665176639338    7.56603000275890
H         1.84848892601723    6.61951525424489    9.17909909278412

