59
CSD_code = IRIKAW | q = 0 | S = 0 | Stoichiometry = C18H29CoN8O2S | MND = 6
C         0.76571252764624    2.70721052510414   10.71121054745840
C         2.05802168016383    2.93175765084985   11.27620987500744
C         2.91005254136963    1.88037885804693   11.50692481125431
H         3.88357097309335    2.04402189478937   11.94172820654354
C         2.52541695416005    0.57252227958397   11.18744966098796
H         3.21166837239336   -0.23690527765052   11.38285212892802
C         1.29693209244850    0.32547776683378   10.64204205960856
H         0.99501120873044   -0.68299831458065   10.40181952338596
C         0.39431395240047    1.37790584942431   10.39543260373225
C        -0.88948715644223    1.09681999604221    9.86198283672521
H        -1.11283066542603    0.05917172285589    9.62652574778425
C         3.52935660574711    4.55934934531978   12.19407710114828
H         4.40414090759208    4.29270202322624   11.59029318511119
H         3.59044538048382    4.05371290361987   13.16298097951489
H         3.51690747047172    5.63738339706928   12.35064260373151
C        -4.03726482625210    2.15182714406603    9.03946611340437
C        -6.33721333104463    2.27813632560657    8.17897148766423
H        -6.36211839285815    3.24618840329145    8.69125579970270
H        -7.24364048255508    1.72733256627124    8.45399986890640
C        -6.33281588025735    2.51387216021294    6.69395470660853
H        -7.22373428836188    3.00397515398860    6.32506333455722
C        -5.35493169508030    2.18407097045038    5.87214512075671
H        -4.45598123713901    1.70133848983935    6.21883304875192
H        -5.40699266479374    2.38757572751817    4.81663848037200
C        -2.95663954320955    6.53495746054306   10.54162147001313
H        -2.81352465410288    7.60117189712019   10.75999593621401
H        -3.52816334022110    6.07880971534888   11.34670470883564
H        -3.53535289347827    6.43893345753847    9.62661009549892
C        -0.91600657693885    6.15409561274456   11.65386771382035
H        -0.74054008511277    7.23259926187546   11.74549619728868
H         0.03675155002794    5.62929420391508   11.64513790200018
H        -1.48953413743181    5.81280874284098   12.51240120383925
C        -0.91289196689805    6.38900125432719    9.28110096516330
H        -1.02240258585971    7.48236561013072    9.22551440796774
H         0.14143334214681    6.15853366017455    9.43993686836956
C        -1.37539582718806    5.76889926863716    7.96650563014440
H        -0.84474016365012    6.24807322216621    7.12889347728612
H        -2.44513326447232    5.94982423059045    7.83677271912932
C        -1.93193743204791    3.73183096003506    6.85101592310025
H        -2.99399511795415    3.93124765951905    6.98470045859179
H        -1.78164751134639    2.65342555029763    6.83336068202126
H        -1.61442608196720    4.14526038907298    5.88481729790581
C         0.25012538629229    4.02187458069465    7.68237490419981
H         0.55221693490157    4.42716362655072    6.70723105458619
H         0.40172034262166    2.94368903858449    7.67744904986107
H         0.88662964358181    4.44472588016096    8.45363779586971
N        -1.85379204531568    1.94580672503892    9.64109778158795
N        -2.98783403135405    1.39569864770498    9.16728860180875
N        -5.19607692201025    1.55836980838599    8.67327104414943
H        -5.11051747602116    0.58767509913602    8.40984883024861
N        -2.29628988660454    3.41715051977198   11.75895092612425
N        -1.74418283421438    2.79296651171385   12.58312533616606
N        -1.34386315531528    2.23587936258496   13.48678917753673
N        -1.66280889640854    5.85729557286775   10.42656659621782
N        -1.15866490778996    4.31614233580730    7.94781720057198
O         0.01027587822935    3.72798978701360   10.48766882620972
O         2.33064673811727    4.25462257221753   11.52986904558666
S        -4.00465424348707    3.84251293909973    9.36476406191108
Co       -1.78962428202334    3.75957727401495   10.02759627852718

