117
CSD_code = IRINED | q = 0 | S = 0 | Stoichiometry = C68H44N4Zn | MND = 4
C         4.08859746448805    5.09722050010236   26.39387066359018
C         4.34179225754260    4.94978758045671   27.79977257465734
H         5.15145207856235    4.39258069745927   28.22808984687549
C         3.38824893997199    5.65844942506181   28.44609667091030
H         3.26993710939800    5.79095399448002   29.50342390700599
C         2.54848812299009    6.24218925909288   27.43789739045385
C         1.45207849694042    7.05361797059621   27.72811178774340
C         0.66877272473270    7.70648658539499   26.77727715466940
C        -0.45118484369471    8.56614501629176   27.07505820800311
C        -0.84859024300604    9.11616580574039   25.88515907046425
C        -0.02195194174203    8.52369917157139   24.86157583169901
C         4.87636712979955    4.50680217320076   25.40618867992630
C         1.16388818662923    7.25682040428618   29.16669051491033
C         1.38107124634167    8.49612616183563   29.75759145760297
H         1.75415351633423    9.31155612820103   29.15538461114653
C         1.12688851225723    8.68277263040424   31.10359268827528
H         1.29504411356440    9.65083968362779   31.55183090117925
C         0.65682707053375    7.63401302601153   31.87498088529911
H         0.45284332878261    7.78289980268439   32.92491172593582
C         0.45513837419776    6.39191676175983   31.29769688668584
H         0.09634438884497    5.56819900063265   31.89763339992017
C         0.71282475529041    6.20189508082082   29.95285252394394
H         0.55538406736673    5.23371333904250   29.49911710251900
C        -1.12221990269718    8.83069759750587   28.34986823884759
C        -1.19605166333509   10.12884199342898   28.84492721300062
H        -0.70559233796157   10.92908693814546   28.30998759751872
C        -1.87907618476985   10.39272937754698   30.01659911150015
H        -1.92279000676650   11.40332082208509   30.39601017492866
C        -2.50908617102370    9.36747047552022   30.70061620718311
H        -3.04142396243115    9.57380181260528   31.61745357928542
C        -2.46223903735485    8.07731187811500   30.20035766364887
H        -2.96419265730865    7.27613223678371   30.72324156859193
C        -1.77917249977984    7.80992308358877   29.02988614326337
H        -1.75446541325657    6.80561981164120   28.63181439714153
C        -1.89392002368842   10.13637748043615   25.77712115900727
C        -1.58761625591755   11.41899576158335   25.33307681863188
H        -0.57704965277286   11.64658733483934   25.02542508090461
C        -2.56384381608587   12.39531850427575   25.29097583395022
H        -2.31624970138629   13.38631443939523   24.93900980210006
C        -3.85426764946364   12.10850598279363   25.70268352238694
H        -4.61672440416214   12.87263068164582   25.66639255923320
C        -4.16086799794963   10.84191371278826   26.16926227745661
H        -5.16320982134058   10.61628338909100   26.50326019582340
C        -3.18643009360961    9.86337570760005   26.21363563668768
H        -3.42521930593595    8.87520344852044   26.57911836951890
C         5.99641582902286    3.66748247989199   25.89073117815675
C         5.74863034448714    2.46609791631476   26.54618882443311
H         4.72774318208000    2.13885325191542   26.68307378725024
C         6.79689290835941    1.69073670637133   27.00564219868469
H         6.59404911983109    0.75448020726116   27.50508392458412
C         8.10342184385670    2.11244651017905   26.82703842081022
H         8.92212158941849    1.50519211488474   27.18355101726230
C         8.35679881268135    3.31790158587472   26.19572702053165
H         9.37399481590818    3.65563590579196   26.06307712989603
C         7.31024405356703    4.09259766249572   25.73131397879951
H         7.50554795599813    5.03654737287245   25.24386054490667
N         3.00512180761979    5.89848685788334   26.20264506408173
N         0.89278726591515    7.69086992922624   25.43312230347814
Zn        2.34493001993541    6.61031064558393   24.44817092198259
C         0.60131829259678    8.12345781259251   22.50247241086180
C         0.34818500006632    8.27097373672085   21.09656848820215
H        -0.46144077792434    8.82822628470945   20.66824621995842
C         1.30173389700118    7.56232093939115   20.45024335801626
H         1.42008741694305    7.42987143309948   19.39291380111352
C         2.14143453156296    6.97849799061108   21.45844566133984
C         3.23780037986725    6.16701010530439   21.16822554992882
C         4.02104783194993    5.51405929842014   22.11905100409921
C         5.14092902260168    4.65430373727961   21.82126742088203
C         5.53832969082143    4.10429440604911   23.01117387455912
C         4.71176517434351    4.69685376287430   24.03476131401027
C        -0.18649874394448    8.71381546454879   23.49015156466492
C         3.52601138702333    5.96386028690479   19.72964045792797
C         3.30869507424494    4.72462152028571   19.13864857110156
H         2.93549677831800    3.90919561848781   19.74078865320933
C         3.56289772652196    4.53803719881898   17.79264228489768
H         3.39463948410653    3.57002110489686   17.34433291383753
C         4.03310803637765    5.58679350436343   17.02134065945361
H         4.23710289872821    5.43795504459756   15.97140515044291
C         4.23492839897982    6.82882594973068   17.59871537252398
H         4.59383706461818    7.65254277955222   16.99884623500523
C         3.97722588207097    7.01878577807645   18.94356545691698
H         4.13476584327595    7.98691745923403   19.39737316799905
C         5.81188552098146    4.38961129725450   20.54644304275746
C         5.88548901378015    3.09143820965343   20.05142538837718
H         5.39491800567272    2.29129192681041   20.58641050985993
C         6.56843082806222    2.82740055429431   18.87973927808292
H         6.61196706602130    1.81678934808771   18.50036053057662
C         7.19858409768731    3.85253460514419   18.19566758665104
H         7.73085649563597    3.64608639694437   17.27881864118124
C         7.15196618561042    5.14271681392071   18.69588603005708
H         7.65403332144774    5.94379730683869   18.17295954494638
C         6.46898433638086    5.41025595326682   19.86637268116565
H         6.44445465416733    6.41457596279633   20.26441273702551
C         6.58357865967127    3.08399989781812   23.11921844531273
C         6.27718895632141    1.80143554391828   23.56335946188933
H         5.26661871994396    1.57394972235980   23.87107746175311
C         7.25333578234496    0.82503229563961   23.60546890840650
H         7.00567564316530   -0.16592087342888   23.95750849727297
C         8.54376229568688    1.11171023536857   23.19367708515634
H         9.30615616192678    0.34752323759823   23.22997625370607
C         8.85044668139730    2.37824779207085   22.72700580246756
H         9.85279079156878    2.60377360034674   22.39294480022312
C         7.87608977448413    3.35686573624814   22.68262211285088
H         8.11494404848821    4.34499580577350   22.31706858005951
C        -1.30653056337126    9.55314830913670   23.00559836450007
C        -1.05872256979875   10.75458263626400   22.35024123018481
H        -0.03783189182395   11.08185532502529   22.21344704541285
C        -2.10696742161539   11.52995644632412   21.89076823076878
H        -1.90410685357196   12.46625020707365   21.39140284975181
C        -3.41350108944251   11.10821040439301   22.06925358212344
H        -4.23218781958547   11.71547345303035   21.71272565878203
C        -3.66689899021065    9.90270746770804   22.70046609795772
H        -4.68409826897660    9.56494647234192   22.83302342688821
C        -2.62036163007465    9.12799806377472   23.16489610301493
H        -2.81568281645419    8.18401121559800   23.65227069776477
N         1.68476947540991    7.32215718618474   22.69369739952734
N         3.79705726308094    5.52971841266341   23.46321239371267

