80
CSD_code = IRINAA | q = 0 | S = 0 | Stoichiometry = C31H43I2N2PPt | MND = 4
C         3.92623731269366   -1.21683524233930   10.26587814802915
C         4.38869846318688   -2.76678901152222    8.74631436574358
H         5.00271149005274   -3.41247548849569    8.15369184005606
C         3.04652046647056   -2.59528020641218    8.76177473742774
H         2.27583096668764   -3.06482943303458    8.18700520425281
C         6.31763934042118   -1.71079108888113    9.91584397343071
H         6.43926818715665   -0.87076472078739   10.60425723112726
H         6.82630628051213   -1.47212733343771    8.98104623062584
H         6.76863980778268   -2.60487200893026   10.35089438320718
C         1.47916211227542   -1.07652409921527   10.01902133448520
H         1.58235074307728    0.01565657481807   10.07425104125900
H         1.18063369813020   -1.41537482523620   11.01512443032917
C         0.43721355692380   -1.44929420779558    8.99922565380190
C         0.36480420146780   -0.71718445568942    7.80137412218120
C         1.28605030083088    0.30893564542720    7.46126523217568
H         2.10168826845722    0.55243733674835    8.12116317811531
C         1.17895399323024    0.99748696524392    6.29139325355510
H         1.89621769919948    1.76991950517236    6.05967858722959
C         0.14364508117252    0.71411343949778    5.37828001336051
H         0.07583304386189    1.27935988186358    4.46090015183958
C        -0.75504215178229   -0.26808079895296    5.65672832397232
H        -1.55115069442333   -0.50576598649364    4.96576948860578
C        -0.67053948392642   -1.01525254680489    6.85932988694619
C        -1.57377422678076   -2.03448238554508    7.13761622225229
H        -2.36466095781267   -2.24601305407556    6.43155984072652
C        -1.47487736095824   -2.80160442919651    8.29255323894242
C        -2.37997143140663   -3.86555570404914    8.53930595018501
H        -3.15853247455545   -4.04794621709266    7.81278978026538
C        -2.26928892614344   -4.64022855597850    9.65094044547015
H        -2.95923614896817   -5.45023308946455    9.83340248438423
C        -1.23468449064044   -4.39084373306918   10.57393903673458
H        -1.14260516209354   -5.02564726116683   11.44334593751991
C        -0.35586750138177   -3.36975630159093   10.37830880038230
H         0.43187596177178   -3.22694024733430   11.10241448030876
C        -0.44016121658511   -2.51963423533115    9.24210506274968
C         5.21430434488204   -1.21533867968219   14.51483342960714
H         5.14830545774063   -0.34360426913762   15.17213682375638
H         5.19713364226275   -2.11624587160927   15.13449248292411
C         6.49532532478321   -1.13577371407414   13.68864904551806
H         6.61081033179668   -2.04571210966892   13.09202576730754
H         6.40880574844575   -0.28505198473872   12.99626478420574
C         7.73596428564611   -0.93463159040420   14.55226124497344
H         7.61326765340390   -0.02700652037880   15.14643404016172
H         7.83849010666389   -1.77585793387016   15.24299585741449
C         8.99389046778255   -0.81318891892663   13.70109141184072
H         9.14773877691950   -1.71337566045196   13.10836706700692
H         9.86717710058301   -0.66436495271208   14.33077385902467
H         8.91260159433901    0.03445048383430   13.02451686112663
C         3.51893822665236   -2.95538298324422   12.93629372084716
H         2.79086045329154   -2.98141545546899   12.12167036919501
H         4.47900528296365   -3.27641673160985   12.51521350419041
C         3.09084660529830   -3.91638498237605   14.04006945622587
H         3.72342447417440   -3.77707620622013   14.92019984853694
H         2.05959623155731   -3.70820361305005   14.33295133078067
C         3.18930302994109   -5.37902073770571   13.59952928915022
H         4.21079686832381   -5.59340929361607   13.27571210426152
H         2.97869055823717   -6.01288426217697   14.46396201035251
C         2.21604376201211   -5.73404824342229   12.48092621146428
H         1.19751522808439   -5.48292948173116   12.76987178057893
H         2.25654742844954   -6.80034003373165   12.27244253299228
H         2.45567084795586   -5.20522716354030   11.56097035022604
C         2.37684254579251   -0.82400953580774   14.57360357504560
H         2.31544302077244   -1.63328851184474   15.30446604884254
H         2.63606666643206    0.09832728950581   15.10090030072170
C         1.06378030709724   -0.62350680194700   13.82180724203121
H         0.74948392092451   -1.56480405077919   13.35945281911451
H         1.23898161888807    0.10719024814120   13.02232366170904
C        -0.06118226389030   -0.10367973678842   14.71432708726431
H        -0.91685558230279    0.14603206298297   14.08283887688729
H         0.26774181008818    0.81474232790859   15.20411237423052
C        -0.50018900778920   -1.11583462561965   15.76609554106973
H        -0.79976275393929   -2.05133394504073   15.29614992110716
H        -1.34876323100924   -0.73033633298884   16.32559631939045
H         0.30063012640445   -1.32264818017914   16.47204565329447
N         4.91484470043781   -1.90855648524519    9.67661203493515
N         2.78101680743066   -1.63319246277845    9.69869072989409
P         3.74890280390440   -1.17664674094930   13.40682187559486
I         4.54765693593688    1.81095118445496    9.57409597029777
I         4.15940584499227    2.15454957979764   13.42062665814585
Pt        4.06621314979012    0.23430294605197   11.62978603516504

