44
CSD_code = IRISEJ | q = 0 | S = 0 | Stoichiometry = C19H19Br2N3Zn | MND = 5
Br        2.91557939198150   13.19081963563108    9.08663111381284
Zn        2.52099397527305   11.02592428854984    8.14635805448003
Br        1.58003672249119    9.06125109242685    9.17462536930747
N         4.65217152592526   10.40645019724434    8.01878665317792
C         4.90116551542995    9.40984125439467    7.17466526799413
C         0.56385648525235   10.78184284642944    5.83641687595155
N         0.82361988383910   11.61706156800069    6.83765803384032
C         3.77052871558411   12.15722406414364    5.26815873428068
H         3.59415218904778   12.57755991520884    6.24500594012805
C         0.02878316039964   12.65846512047179    7.04143585207801
H         0.29566623118294   13.31034526318081    7.86193093579269
C         6.16656571292228    8.85165152330501    7.05713720636346
H         6.33567987477470    8.04159330451589    6.36459094118808
N         2.85247338581474   10.02168236101951    6.04278926242947
C         4.57477338784077   12.44526197922488    3.01199107960453
C         7.19378815057096    9.34860801313846    7.84078260572149
H         8.18663278193942    8.93047510231947    7.76966712325748
C         3.72972114691419    8.90492024174567    6.38267697064662
H         4.07943939783048    8.35253818177271    5.50105116549399
H         3.17333790664102    8.20961311317632    7.02206884290879
C         5.63512076321303   10.88993135788118    8.76560052310226
H         5.37719793057360   11.70715274512355    9.42505540985819
C         3.43642495823544   10.83913170225876    5.00473247596087
C         6.92471907222371   10.39246433808795    8.71199596246041
H         7.69450295699099   10.81369680181364    9.33781989885566
C         3.67420822475125   10.32795639775119    3.73361210923983
H         3.42108250150906    9.30326249176979    3.49779784153379
C        -1.07918966538115   12.91474273247342    6.25401832270750
H        -1.70036614574303   13.77218587463861    6.45499520756743
C         4.23625782732509   11.12289492775577    2.75332481529684
H         4.41283905845480   10.70784624233519    1.77115439058475
C         4.33229820169483   12.94875407943930    4.28321443918636
H         4.58503807731578   13.97374978420729    4.51060673501329
C         1.49595806014732    9.61385671928024    5.68879521130059
H         1.17128532263335    8.84136336760969    6.39570558856116
H         1.42530239390450    9.19988477787398    4.67477689109024
C         5.20491631668512   13.30117437723614    1.95773692169524
H         6.28671914519998   13.31952576426542    2.09295795031439
H         4.84360162305865   14.32472512030346    2.02527119813222
H         4.99427128389210   12.91501792033046    0.96346205641244
C        -0.52664051485310   10.96488117442540    4.99725165338451
H        -0.71200275974777   10.26717500036464    4.19531708780352
C        -1.36348982637204   12.04637340142396    5.21182967639974
H        -2.21982034740080   12.20962383546541    4.57483960514335

