51
CSD_code = IRIXIS | q = 0 | S = 0 | Stoichiometry = C24H20N2NiO2S2 | MND = 6
Ni       10.64221191145558    3.77934434412366    8.82839395428398
S        12.28103814402095    5.42622346131839    7.81993467764858
O        12.14668008387691    3.91071128716737    9.84086849932773
N        11.48128898628003    2.20724150601686    7.48654343820563
C        11.49487196142562    2.47322765113920    6.18242551102788
H        10.78191488901867    3.21283161473087    5.84080917504026
C        14.06836884809853    5.30641975079069    9.92086684596647
C        12.83656829048316    4.81504372588163    9.29848146307115
C        12.36361296384515    1.85525459611639    5.29817008374648
H        12.33924599493360    2.10676084141253    4.24952081051793
C        14.49070428388317    4.74982227757679   11.12868854980855
H        13.90125218889320    3.96278751795802   11.57541673056044
C        15.64424128571658    5.20678930767139   11.73457148628850
H        15.96853356215922    4.77537224551629   12.67041724664871
C        12.33551342312813    1.30020155964942    7.95284383235504
H        12.28822193779173    1.10659494294187    9.01660365313066
C        16.38408014333086    6.21971241997288   11.14437667608347
H        17.28486044623800    6.57750095464331   11.62137045451442
C        14.81612303088504    6.32319687036735    9.33191988507528
H        14.47768099516661    6.74798830146299    8.39872115648248
C        15.96838049632080    6.77551642639582    9.94407286010264
H        16.54532526658764    7.56581212550822    9.48692387993516
C        13.24290562998733    0.63574695286241    7.14427576146071
H        13.92121654827883   -0.08724211089463    7.57012231598255
C        13.26128874688740    0.92079090053250    5.78843009956234
H        13.95919006532890    0.42532326741637    5.12934629560866
S         9.00345728340042    5.42623466634771    9.83676363176986
O         9.13778955091793    3.91070779295690    7.81584173349818
N         9.80318490672861    2.20718833823798   10.17023642403247
C         9.78979001239144    2.47305179859413   11.47439198766954
H        10.50251432030507    3.21285230442351   11.81591369868374
C         7.21603556539475    5.30635631442690    7.73591481493489
C         8.44790841131825    4.81505497253118    8.35822272889682
C         8.92093698114970    1.85522504193082   12.35864820312153
H         8.94517429739790    2.10690438359095   13.40724373313299
C         6.79369338806756    4.74982866388461    6.52806408590599
H         7.38315768415398    3.96284696414288    6.08125908815746
C         5.64013773053375    5.20681369855683    5.92222474257747
H         5.31584521624020    4.77545652783849    4.98635142186761
C         8.94872106344758    1.30035635613562    9.70390686066423
H         8.99620010262748    1.10652510407871    8.64021613364503
C         4.90028557735548    6.21968407295632    6.51249086242704
H         3.99948752770923    6.57748064617105    6.03553485611469
C         6.46824483437445    6.32305725676676    8.32495066229421
H         6.80669516238510    6.74780180875298    9.25816861569945
C         5.31598170747835    6.77540705349693    7.71283389998470
H         4.73901896019684    7.56565195840470    8.17004820276931
C         8.04131970242140    0.63594717909525   10.51250263822659
H         7.36311790881969   -0.08714052760658   10.08672454142637
C         8.02306224134088    0.92092232543340   11.86837358438962
H         7.32511973982158    0.42551256057355   12.52745750568159

