121
CSD_code = IRIXIQ | q = 0 | S = 0 | Stoichiometry = C54H60N6Pt | MND = 4
Pt       -0.82087128618824   26.77722924448685    3.98990297178326
N        -0.59012915028397   24.20456192959207    2.42583795619094
N         0.68531590371362   25.70388871320218    1.56546533166416
C        -0.21197671520961   25.49200186052181    2.55141501211434
C         0.87120854563840   24.55694089316295    0.84239604823164
H         1.54538227867479   24.50592517219288    0.01238623041520
C         0.06702681559749   23.61202840824808    1.38288099166650
H        -0.09381445067392   22.58902128456162    1.11213501861612
C        -1.56364074754703   23.54653947128024    3.27062743520385
H        -2.04556570971695   24.32521621724190    3.87662711746310
H        -1.03733569804966   22.88549359559708    3.96184942291335
C        -2.58671779200739   22.80458036877828    2.44780035815372
C        -2.64078146514998   21.40004134669008    2.44567073018035
C        -1.76132019543275   20.56842984185306    3.19233878554187
H        -0.98232346945535   21.00731398589412    3.79598546736597
C        -1.86533085301629   19.21105718306810    3.16715692199775
H        -1.18077847869563   18.60784939793762    3.74530878856871
C        -2.85665042178331   18.57481859848571    2.39420843721180
H        -2.92256087830023   17.49709797856734    2.39596832912856
C        -3.71290039726986   19.32549988606680    1.65225276322829
H        -4.47749152567018   18.85936662465347    1.04719179617954
C        -3.63228190855012   20.74197576526455    1.64633187325543
C        -4.50335768793100   21.49499119994569    0.86850286169825
H        -5.24277201161371   20.98822778087197    0.26406542465200
C        -4.44548627572013   22.88281388657106    0.84895134005365
C        -5.33522575579178   23.64190296722357    0.04551039105358
H        -6.06113969664230   23.10714677330547   -0.55076185431940
C        -5.27843288728347   25.00072435785401    0.02536093566984
H        -5.95681102255429   25.57265787019736   -0.59009952938830
C        -4.32954115967032   25.67235928994906    0.82152807706880
H        -4.28474527866869   26.75097039506079    0.80965784290581
C        -3.46543286236134   24.97534597587484    1.60993857272431
H        -2.76082877983089   25.53827486969715    2.20328859198824
C        -3.47446912528789   23.55512376452035    1.65569898126921
C         1.33120409040564   26.96933923163547    1.31962854824259
H         0.55740229387062   27.74118197760285    1.22625010127185
H         1.87558043608703   26.90138218984365    0.37475961677917
C         2.27730289779298   27.33717306099028    2.46407260805442
H         3.09295338675359   26.61196874260208    2.51432702447244
H         1.71442370710298   27.26957262677804    3.40689819520477
C         2.84052461559885   28.74508758448951    2.30391342019199
H         3.32611878548517   28.83518808309753    1.32890787293370
H         2.02072740136998   29.46673685571262    2.32736387255273
C         3.84481651197748   29.08033034242204    3.40500556183925
H         3.42725706010952   28.80138880374168    4.37450545864558
H         4.75265611702010   28.49075386788046    3.25796288048352
C         4.19983889347998   30.56463293404660    3.42516940648311
H         3.30218335035545   31.14417827157324    3.65548179735169
H         4.54679848353082   30.86335298588931    2.43446112336929
C         5.27362528258630   30.87153490739362    4.46626141036044
H         4.96886958788892   30.43202314179195    5.41908098779102
H         6.21230264185180   30.39744646080548    4.16960788518400
C         5.50524493352614   32.36837728840133    4.66998798930652
H         4.55596252981385   32.84424290354708    4.92582954062415
H         6.18239205593505   32.50265175986771    5.51715461995354
C         6.10278288558178   33.05583716428036    3.44797726363862
H         6.32316989094847   34.09763908360089    3.67022459052698
H         5.41111972482309   33.02814641008553    2.61039344162543
H         7.02749954338404   32.56621847070627    3.14965305086400
N        -2.15122822562095   28.66176633693798    1.85799637718644
C        -1.68126914768097   27.95801906348106    2.64123970924989
C        -1.42879272031495   28.06134325413195    5.42989625992458
N        -1.05121461426736   29.34896823800609    5.55516083259635
C        -1.70861987398683   29.94148462007623    6.59798180309569
C        -2.51273682405086   28.99649622921305    7.13840779088417
N        -2.32658845398327   27.84953135863071    6.41542480793067
C        -2.97256677487492   26.58407142313851    6.66096696744056
H        -2.19871788025910   25.81224971765260    6.75406127597105
H        -3.51681544976074   26.65178715091321    7.60591464183685
C        -3.91888646623712   26.21658934830979    5.51658148690894
H        -4.73434905547875   26.94202029520573    5.46645671364795
H        -3.35612449652014   26.28409603441719    4.57369091920945
C        -4.48242653908704   24.80879957149803    5.67675793764906
H        -4.96788955624770   24.71879239167139    6.65183545938268
H        -3.66279576974169   24.08696536698841    5.65316953571358
C        -5.48695576700174   24.47381009113930    4.57579127864217
H        -5.06958046260369   24.75284240258545    3.60623801908243
H        -6.39472114181431   25.06342043347322    4.72311090813558
C        -5.84210801948191   22.98953372498515    4.55551820138427
H        -4.94452048669440   22.40994701194162    4.32506042656910
H        -6.18900510728829   22.69072755883358    5.54622040503429
C        -6.91600448764165   22.68277706883702    3.51449590165870
H        -6.61127007875146   23.12230252552724    2.56167673802695
H        -7.85459977095193   23.15696189356511    3.81124168924999
C        -7.14785944311146   21.18598421583365    3.31064485289679
H        -6.19864852389270   20.71002352488431    3.05471981433412
H        -7.82507067586311   21.05187081583650    2.46349590261858
C        -7.74539013250774   20.49848851395880    4.53264100887730
H        -7.96601677821002   19.45676865548242    4.31024483890141
H        -7.05364832112360   20.52589723907325    5.37017202772009
H        -8.66998200517531   20.98824431044975    4.83112159341474
H        -3.18713482483333   29.04752880080914    7.96824087860646
H        -1.54808028310751   30.96457947818143    6.86860233989714
C        -0.07791291777606   30.00708095693680    4.71018979847921
H         0.40421004390051   29.22836329222091    4.10441784741328
H        -0.60432905601660   30.66777649410313    4.01872247157422
C         0.94494615972774   30.74934203235960    5.53298697395077
C         0.99879825751173   32.15389265991968    5.53519391331255
C         0.11928588070575   32.98541324272600    4.78847195409605
H        -0.65966880055857   32.54645229918182    4.18483839055086
C         0.22314811063252   34.34278909570117    4.81366750211672
H        -0.46145485397929   34.94593273589339    4.23550220786128
C         1.21431389616947   34.97911297001089    5.58673135473217
H         1.28014880555525   36.05683790877089    5.58492604378376
C         2.07059182865105   34.22853311572583    6.32875690449050
H         2.83510889349681   34.69476450956374    6.93383893782515
C         1.99015125979145   32.81204335167319    6.33465365315768
C         2.86121945827803   32.05910141131913    7.11256747174523
H         3.60048495724295   32.56593970460173    7.71712675560397
C         2.80355310714569   30.67126668596805    7.13203856177932
C         3.69330489695023   29.91221044240323    7.93550521397226
H         4.41897809221447   30.44700145486479    8.53202469996419
C         3.63666114288248   28.55337679541508    7.95557045131613
H         4.31488676996543   27.98148990249208    8.57123086467943
C         2.68785559978651   27.88168360053295    7.15934520052709
H         2.64313428122476   26.80307034602598    7.17110600195311
C         1.82381520902363   28.57866748901896    6.37083167707686
H         1.11942417930848   28.01567606175125    5.77729730591411
C         1.83272546272707   29.99888392202957    6.32513258151533
C         0.03728759160733   25.59888541913045    5.34233999587521
N         0.50867293745974   24.89292138672869    6.12284823082511

