121
CSD_code = IRIXAI | q = 0 | S = 0 | Stoichiometry = C54H60N6Ni | MND = 4
Ni        4.15758764464106    0.00000298995073   -0.00003624248039
N         1.92509598998006   -0.38090103794036    1.80417494744262
N         1.33486627470406    0.79741099433007    0.11075796677389
C         2.38009272615331    0.13218989064661    0.64466004949069
C         0.24670615917434    0.70948495047674    0.93564341070331
H        -0.68933752988912    1.17071189755538    0.69664602997870
C         0.61740702992232   -0.03496440228922    2.00292479632299
H         0.06887033884146   -0.34817618038814    2.86708207888022
C         2.71787656401408   -1.17744480520534    2.71638034801062
H         3.06833062024093   -0.53576637125141    3.52796640309329
H         3.60693115017284   -1.51052795048647    2.16559398476190
C         1.94490095085757   -2.36493276974704    3.23173021904837
C         1.62339650590507   -3.39400605565847    2.32830810139365
C         1.99112600117817   -3.36549272701365    0.95626837769176
H         2.54576782206283   -2.53211628100189    0.55554499275830
C         1.65232742703147   -4.37256291983579    0.10449983343495
H         1.94745319246533   -4.31219303345059   -0.93217637566796
C         0.92392333215104   -5.48863423093254    0.56157508154014
H         0.66660026556338   -6.27639439534094   -0.13089169423368
C         0.55672057420068   -5.56478461413669    1.86909028149158
H        -0.00052424686204   -6.41342138212018    2.24071626760228
C         0.88946435721241   -4.53353194210876    2.78505937326518
C         0.51750436467829   -4.61314702688936    4.12122982398123
H        -0.02810136236925   -5.47989080305227    4.46793712073806
C         0.82261070839237   -3.60002354773528    5.02211323623159
C         0.42685604090948   -3.70033602026971    6.38076691220625
H        -0.09768362846601   -4.59292433013724    6.69091138998679
C         0.69411882211535   -2.70510801722246    7.26693563708872
H         0.39054791321058   -2.78615183881418    8.29995983663941
C         1.36950669566784   -1.54828457911801    6.83046053949673
H         1.56449115646283   -0.75443210190608    7.53652517311477
C         1.77465930090759   -1.42044689563365    5.53689909221011
H         2.28012781925879   -0.51174091890150    5.24942828187255
C         1.53512489464055   -2.43948894067166    4.57420014499796
C         1.37320455190865    1.49978942111267   -1.14704894751513
H         0.34707925654319    1.68433428484078   -1.47415727269469
H         1.86605328659109    0.85266297525822   -1.88290441281530
C         2.14831538318321    2.81391440579877   -1.02764474812517
H         3.11428430040547    2.59959625471922   -0.55633101897860
H         1.61002174409822    3.50229758975908   -0.37216604443317
C         2.37945079669220    3.45952707788276   -2.38953000922781
H         1.41793175055596    3.68849889181589   -2.85544103373973
H         2.89570529722231    2.75005499376954   -3.04107806824283
C         3.21383250309120    4.73384183135463   -2.27920732964855
H         2.62496155930236    5.51503506849217   -1.79366608906728
H         4.08548851884635    4.54029372577357   -1.65002089456963
C         3.69149483744128    5.22390701043070   -3.64315686753514
H         2.83122334328286    5.38978633748300   -4.29611285258993
H         4.31097195178758    4.44906881221460   -4.10261240043269
C         4.50503060856763    6.50991657652397   -3.53297230039154
H         3.86883520347866    7.31261373350084   -3.15269774603702
H         5.31226774602969    6.35887481969412   -2.81279531323004
C         5.10280441070735    6.92617023958016   -4.87395254480094
H         5.71376473018565    6.10644731553744   -5.25938175461646
H         4.29826220988577    7.10483087692887   -5.59109503340332
C         5.95836480574958    8.18000355796110   -4.74597784452467
H         6.38552927462123    8.45492232654024   -5.70778897426537
H         6.77027513751088    8.01252253589013   -4.04172350335170
H         5.36179169395477    9.01471486245645   -4.38422016874915
N         3.32539402873360   -1.82721519981417   -2.21206386514006
C         3.63633851754654   -1.14437509350838   -1.33541935287539
C         5.93498730009136   -0.13213816666010   -0.64459168828584
N         6.38996602296458    0.38087817139991   -1.80416562043042
C         7.69765919104751    0.03497938918754   -2.00288317346426
C         8.06838240787070   -0.70942767414328   -0.93557056000796
N         6.98022410734891   -0.79736335271911   -0.11070031049842
C         6.94190887130049   -1.49969305277248    1.14713833494383
H         7.96803969666652   -1.68421016642616    1.47423913454951
H         6.44907097670259   -0.85253339257547    1.88297794540828
C         6.16681491533550   -2.81383344985096    1.02780229095989
H         5.20084890179267   -2.59953788731265    0.55646121580381
H         6.70512781281518   -3.50224156296557    0.37236270415519
C         5.93564212799341   -3.45941745833493    2.38969290329663
H         6.89714162420158   -3.68834307763111    2.85566561833344
H         5.41932721270989   -2.74995141940055    3.04120082551000
C         5.10131398973973   -4.73376312879456    2.27934174857416
H         5.69024154110884   -5.51493139028410    1.79383131855428
H         4.22968572862727   -4.54024368706286    1.65010710654920
C         4.62359232195816   -5.22384828190488    3.64325745843472
H         5.48383173479980   -5.38972408308885    4.29625562666779
H         4.00408446015595   -4.44901804323888    4.10268487191006
C         3.81006965923773   -6.50986153130988    3.53303542640285
H         4.44629394579949   -7.31256326748955    3.15282118652945
H         3.00288432333621   -6.35883532887212    2.81279770484724
C         3.21221343446794   -6.92606706858812    4.87399299898890
H         2.60123760338041   -6.10632118119691    5.25934912484077
H         4.01672088065869   -7.10469497936722    5.59118243901168
C         2.35665350072898   -8.17990164618551    4.74604096531051
H         1.92943875842373   -8.45475665108773    5.70784803488269
H         1.54478167803790   -8.01245644448908    4.04173386821767
H         2.95324231197438   -9.01463748343887    4.38436794330376
H         9.00442994967516   -1.17065616031996   -0.69658369953686
H         8.24622324708231    0.34816218332605   -2.86702812001566
C         5.59708230337264    1.17739162957022   -2.71631308735833
H         5.24643877291138    0.53571332114128   -3.52781711209159
H         4.70814755967619    1.51055208000841   -2.16539293029573
C         6.37003220341985    2.36483562164551   -3.23176566957647
C         6.69166591310395    3.39391730661225   -2.32838985085705
C         6.32408335606198    3.36542739877510   -0.95631913350152
H         5.76944296475364    2.53209110045699   -0.55551882339632
C         6.66298196938400    4.37250381415796   -0.10459204621204
H         6.36794318530706    4.31214067681396    0.93210847597794
C         7.39136046066757    5.48855209171149   -0.56175511322641
H         7.64882371964555    6.27628950479575    0.13068707635295
C         7.75844762241246    5.56466548381258   -1.86930944707369
H         8.31573341793686    6.41325774518283   -2.24097686714593
C         7.42559505899815    4.53340926298763   -2.78522848781053
C         7.79742622373201    4.61298853425872   -4.12144078544868
H         8.34296355301188    5.47974171307151   -4.46823584808613
C         7.49217145312118    3.59986866052415   -5.02227558421956
C         7.88764355672323    3.70019066511079   -6.38101734993185
H         8.41229981459489    4.59268323597372   -6.69122993029829
C         7.62021037848194    2.70495008121174   -7.26713792838799
H         7.92383928072268    2.78585447654044   -8.30016156229605
C         6.94503083663964    1.54804502016054   -6.83050830760672
H         6.74992181101667    0.75421027008738   -7.53654781954760
C         6.54005414075885    1.42025079769849   -5.53689592748781
H         6.03450666365857    0.51163018541298   -5.24931583571942
C         6.77968003985986    2.43935348057706   -4.57426938436502
C         4.67863682574139    1.14464867696949    1.33531916286681
N         4.98923335318065    1.82777860263020    2.21191546409372

