85
CSD_code = IRIYAJ | q = 0 | S = 0 | Stoichiometry = C42H36N6Pt | MND = 4
Pt        4.22948092565554    0.00010581215550   11.25534374216440
N         2.23798086914905    2.20259643584069   11.84723077430042
N         3.46145889387794    2.73774883012362   10.16429315326788
C         3.26216513984234    1.77022452521788   11.08491177433865
C         2.56725714924988    3.75679468968713   10.34853126880526
H         2.55232226631871    4.62632318768989    9.72421446158023
C         1.79718408610457    3.42170552866083   11.40948129422113
H         0.99250716875010    3.94453688030150   11.88359114316380
C         1.67407242582395    1.48046095470328   12.96778075470241
H         2.31997053958075    0.61426758271751   13.15888748997875
H         0.69699575385066    1.08630364674860   12.67951513193123
C         1.58017478916851    2.35101334555255   14.19626514291502
C         0.34497895661665    2.86795049934037   14.62213413455066
C        -0.87514850499275    2.68913500127086   13.91361006629218
H        -0.88554700540751    2.13937469706299   12.98513013269821
C        -2.04754422648322    3.21373388006595   14.36532450491065
H        -2.95683144514093    3.06725647750585   13.80076277580043
C        -2.09526472098700    3.95214202149292   15.56432696820072
H        -3.03871340786298    4.35226572218623   15.90465557650282
C        -0.95384105860393    4.15693528080558   16.27340176433885
H        -0.96703001880976    4.72735251612624   17.19115573694552
C         0.29000321524370    3.63895911520688   15.82906794083575
C         1.45523146215903    3.87776978962806   16.54786698260454
H         1.40144373875511    4.44949504410805   17.46408031016380
C         2.68955436823754    3.41646444680001   16.10636753859923
C         3.87994761671692    3.69957041399527   16.82429327566221
H         3.79818317518322    4.27298485172514   17.73683237204391
C         5.09039968009176    3.27328391268277   16.37358258998250
H         5.99364166792871    3.49738565084310   16.92145978226686
C         5.17142961592419    2.53859335373293   15.17401178476567
H         6.13440028251740    2.22068348749742   14.80365675576648
C         4.04745750763173    2.23512979987841   14.46875616040703
H         4.16164737068909    1.68992107349461   13.54354650517853
C         2.76007544620097    2.64913748634544   14.90096509318406
C         4.47630705976350    2.68186010366442    9.13970588902282
H         5.44300934977844    2.49364907307956    9.62227302721288
H         4.51377418127750    3.65291545052849    8.64055297086371
C         4.17381827392095    1.56611765019669    8.14427893752906
H         4.98510818238962    1.46414085281150    7.42916877061790
H         3.24913898101465    1.76385679010265    7.60633620727423
H         4.05899160996927    0.62337468030739    8.68763263039725
C         2.51989590716220   -0.92053960603343   10.82658044737456
N         1.51456637851339   -1.44056358861628   10.60680202955700
C         5.19660680847130   -1.77013489319016   11.42603710161901
N         6.22086748180681   -2.20249083514914   10.66384792788600
C         6.66170262718248   -3.42152697933348   11.10176388645892
C         5.89148147130127   -3.75664729740389   12.16259448110242
N         4.99722934164674   -2.73760953848364   12.34667520855341
C         3.98235082888199   -2.68148272391746   13.37116310458226
H         3.01586058342226   -2.49263619241757   12.88876290915861
H         3.94428349046564   -3.65243203294556   13.87026241833663
C         4.28491984915535   -1.56619767696347   14.36671660512509
H         3.47381334923775   -1.46390403554251   15.08187794630202
H         5.20938753261787   -1.76485755282232   14.90437385415933
H         4.40066704807122   -0.62358647090963   13.82359192507334
H         5.90643195732055   -4.62612405031566   12.78700473784034
H         7.46648573771322   -3.94432504761033   10.62779740048033
C         6.78478619335163   -1.48035380430438    9.54328981127213
H         6.13881758861007   -0.61419819940165    9.35219140846749
H         7.76182911419590   -1.08610415459760    9.83155824121222
C         6.87868875132053   -2.35094023817390    8.31481536248967
C         8.11383246658979   -2.86804290980402    7.88899158002956
C         9.33394651196160   -2.68932075906452    8.59755833923694
H         9.34428258894482   -2.13956905673165    9.52604624284313
C        10.50631914796684   -3.21397942043762    8.14585854159107
H        11.41562082596607   -3.06758235370531    8.71042017029153
C        10.55400686743445   -3.95238107622290    6.94684614895282
H        11.49744463218610   -4.35252357596349    6.60650703792808
C         9.41257753986384   -4.15716335110132    6.23777629455974
H         9.42577744127276   -4.72763110192232    5.32005266040525
C         8.16875736340242   -3.63909103318023    6.68207570019393
C         7.00351633103896   -3.87781948638363    5.96326152175139
H         7.05724887128878   -4.44959778638448    5.04708056715540
C         5.76923624861460   -3.41635644679206    6.40471830619077
C         4.57880137332749   -3.69936162490649    5.68681804919379
H         4.66044918832052   -4.27282416529731    4.77430032230169
C         3.36840206381641   -3.27294164048407    6.13754335675097
H         2.46513367302593   -3.49695375385814    5.58967895347503
C         3.28743685905373   -2.53826288323249    7.33711636728442
H         2.32449464586595   -2.22034646960291    7.70753852147899
C         4.41144789120406   -2.23486970660745    8.04232661254033
H         4.29730277953598   -1.68967477494917    8.96754562345920
C         5.69878550341268   -2.64897413777562    7.61009007617009
C         5.93957406150462    0.92000074419438   11.68463031203281
N         6.94584172285666    1.43840114646037   11.90422857114702

