51
CSD_code = IRIYUF | q = 1 | S = 0 | Stoichiometry = C22H26N2Rh(1+) | MND = 8
Rh        3.53297932763923   11.63548787768587    2.84493799177637
C         4.28035851187725    8.97667399798026    1.91072913980443
N         5.24103832844321   12.04773855902686    1.98341162779229
C         3.12940619561770   13.50377354284826    3.86761153366631
C         2.51313921790297   12.46024455193726    4.62320236075959
C         1.58311225068392   11.80251776089138    3.75506006286598
C         0.59297487153373   10.75598850704475    4.16568476089500
H         0.98049761721926   10.13775238631080    4.97141102363724
H         0.33154397851196   10.10662028750958    3.33268690017161
H        -0.31943217437985   11.24005635003131    4.51683995781902
C         1.45747355949819   12.60967564881682    2.54632183317724
C         0.37156659145769   12.45842899296496    1.53216700521772
H         0.67835315439932   12.82032120453375    0.55273419417084
H        -0.48680644538129   13.05287522575345    1.85013208654443
H         0.04232480605149   11.42537739291837    1.44671823228140
C         2.40942145080178   13.63500346756693    2.60599514009361
C         2.55781643389967   14.77731464808889    1.65429998873504
H         2.20878909463415   14.51494290351896    0.65851707634043
H         3.59235624534429   15.10626040889032    1.58511857632616
H         1.96190399905722   15.61886970455232    2.01107473412175
C         2.72354830884523   12.20014824918426    6.07895430429849
H         2.13473910601743   12.92203494943536    6.64690489362429
H         3.76593313649258   12.32122989209150    6.36384470065879
H         2.39579123681265   11.20379317313431    6.36203549600496
C         4.05860259549744   14.53777263245975    4.42154574350492
H         3.47245283769426   15.33428585827399    4.88234767742275
H         4.67266407605184   14.98045112527361    3.64066749216648
H         4.71134262101979   14.11531179284423    5.18147801749724
N         3.41923195709699    9.97910511473521    1.59270818697620
C         4.49040134188861    7.86503391581437    1.05581641332698
C         3.72473408326506    7.79927926030729   -0.12534175340502
H         3.84551862506349    6.96047878364500   -0.79388248718829
C         2.84561948871819    8.81214513007744   -0.40725710128127
H         2.24511649265153    8.79873319321680   -1.30249890127062
C         2.73250355048886    9.89623105560250    0.47306775702421
H         2.06406977841430   10.71354397126103    0.23499134293790
C         5.46372628616457    6.91512208085139    1.42564775496096
H         5.63347260814655    6.06551029337953    0.78288186051778
C         6.18787336436840    7.08416070239191    2.57572589721113
H         6.94197252765258    6.36158546352584    2.84723309483738
C         5.95711488301946    8.17534582171991    3.42632580255022
H         6.52944858101936    8.26863739694683    4.33687700878427
C         4.99527904670345    9.11036729804703    3.12172633167209
C         4.59989868746206   10.24798759858676    3.99401986473301
H         5.46446255230513   10.66165184328478    4.52266759214142
H         3.88676833963337    9.87625588544463    4.74099546071756
C         6.28714847211298   12.25937997593609    1.55357826636432
C         7.57982965989180   12.52654044452661    1.01868933628039
H         8.11963621737267   11.58919018694238    0.88317817786677
H         8.13766067051817   13.16344512033837    1.70562145501908
H         7.48962185280213   13.03061837184866    0.05629608782055

