69
CSD_code = IROBIC | q = 0 | S = 0 | Stoichiometry = C29H32AuF5N2 | MND = 2
Au        1.00269953782107    0.48883779647509    9.75281915163389
N         2.69557676808144    1.19596560806483    7.29736495565262
N         0.90321224614243    2.40164205418600    7.36003818814712
C         1.57206835137952    1.42532323535987    8.01202399188219
C         2.72616107466981    2.02325506836269    6.20954868734390
H         3.51097178676362    2.03797421522427    5.48607456726439
C         1.60488487162447    2.77752146808807    6.24880652812277
H         1.28897565861800    3.53348581136649    5.56446040832390
C         3.73446807724601    0.21026799632401    7.62584055383843
C         4.85506807561399    0.24026401945682    6.57998607044138
H         4.45271261236612    0.00420342620154    5.59186727628100
H         5.31290557134925    1.23201664348021    6.54822031208061
C         3.12653233415325   -1.19658729299859    7.64109024296095
H         2.31905032471759   -1.24178848191615    8.37308820652441
H         2.70621245995134   -1.42120228341397    6.65723156243445
C         4.34321002316956    0.53937738137878    8.99337836931384
H         4.78317080753182    1.53988823101471    8.96437499980069
H         3.55832056115077    0.53670479450272    9.75217778118837
C         5.92956424849059   -0.79004625461780    6.93594525731063
H         6.71823265217103   -0.74878727479983    6.17616245066358
C         4.20129520515409   -2.21961269450796    8.00441071897804
H         3.74638488083867   -3.21418101358554    8.03079953822706
C         5.31478756015677   -2.18720859233852    6.96036182299032
H         6.08031978560733   -2.92482693701878    7.20711496676220
H         4.91424425141849   -2.43771376909893    5.97522595014444
C         5.40694340042015   -0.49803508958264    9.34818734334397
H         5.81916979597239   -0.25935963604363   10.33393694006135
C         4.77483440371004   -1.88807134108821    9.38051863220746
H         3.98081254399423   -1.92229730070006   10.12611431955761
H         5.52680592181512   -2.62969081322163    9.65554414373892
C         6.52155049013525   -0.46413091522342    8.30484938218883
H         6.98855626122170    0.52353405549065    8.28591388738343
H         7.29271021393150   -1.19354059818225    8.55837435890196
C        -0.38552675600454    2.97725396939374    7.76792297668806
C        -0.83498162552763    4.05315008023770    6.77247693069332
H        -0.94522887056898    3.62006865582155    5.77521892667022
H        -0.09623690052024    4.85713088741667    6.72955175261082
C        -0.24930892077315    3.62645753457021    9.14953936701584
H         0.08000907998955    2.88271705946067    9.87630595019904
H         0.50496527520480    4.41658685997115    9.10651002352650
C        -1.45163536259412    1.87655431727349    7.80085933808746
H        -1.14403294801650    1.09136861748753    8.49411747042539
H        -1.54625811237620    1.43249529923832    6.80619672873134
C        -2.17964298143926    4.63972298890702    7.20946701574476
H        -2.47974176494380    5.40373380139924    6.48337710048191
C        -1.59573138239154    4.20230481364591    9.58433602956024
H        -1.48579257467911    4.64191436140008   10.58002772547265
C        -3.23304889874451    3.53567449905452    7.25409707131696
H        -3.35901405913072    3.09703426121309    6.26127700056884
H        -4.19420750880238    3.95276198151168    7.55947036262942
C        -2.04027421594941    5.27344851782716    8.59138189335724
H        -1.30861892340703    6.08422216423865    8.56010572527991
H        -2.99629638374071    5.69806742220222    8.90240169620380
C        -2.78819862871154    2.46532085608694    8.24834675238784
H        -3.53382853926170    1.66443690835585    8.28382255071402
C        -2.63451661982761    3.08390457128726    9.63634000216743
H        -3.59284285326662    3.48513290030780    9.97052789004456
H        -2.31973469867777    2.32519550214894   10.35259921742013
C         0.44418473733035   -0.43218376384654   11.48107927444425
C         0.84979089536988   -1.71716852020237   11.81748974306302
C         0.49028948530768   -2.36823188352698   12.99019015146375
C        -0.32884579995723   -1.71637933386487   13.90251297295555
C        -0.76593485747499   -0.42959220850432   13.61724778001008
C        -0.37178353382972    0.17149596957734   12.42906231796435
F         1.65003883911967   -2.38911780551364   10.95602979708719
F         0.92426312863111   -3.61343521266603   13.25000288996885
F        -0.69274881568283   -2.32125484438573   15.04357378610669
F        -1.56028865656816    0.21631831690492   14.48795833947292
F        -0.82095300547666    1.42670893893278   12.19082388377070

