47
CSD_code = IROBOG | q = 0 | S = 0 | Stoichiometry = C19H24Cl2OTi | MND = 8
Ti        2.17022334479711    7.01477245024495    1.48022500566876
Cl        2.82634727622771    5.69049155565585   -0.10847686950455
Cl        0.37665351392359    7.79844220977242    0.54350323324246
O         1.53647465974575    5.92182595660519    2.63731361375608
C         3.23515549817699    7.65259059645207    3.39194731599954
C         2.49776095851940    8.76027515068435    2.88596352321002
C         3.05632877120555    9.11542271414179    1.62476636542998
C         4.11497134174999    8.20620017918823    1.33871633563353
C         4.21282899282705    7.28789256671328    2.42304180345486
C         2.73788938313850    6.74167476405662    4.44663538682032
C         1.79882313256433    5.81451169799218    3.93849553949708
C         1.20193611451550    4.85608714575090    4.77269033321295
C         1.57932208736766    4.86685075533457    6.11105734210104
H         1.14915327608833    4.15142261514795    6.79228385967003
C         2.50025396297559    5.77290059551899    6.61125681280953
H         2.76272205872881    5.74076492448460    7.65777609738477
C         3.08678595842411    6.71680379873956    5.78305140779724
H         3.80592760821609    7.42486174086207    6.16690998325008
C         0.20112264045127    3.87517796068456    4.18098182391885
C        -0.97463140503968    4.66154226420774    3.58024646551076
H        -1.46161168089354    5.25756213169789    4.35015337079102
H        -1.70532277853729    3.97310699262460    3.16127569461268
H        -0.63885508715504    5.32877371417131    2.78528524176428
C         0.89949498354051    3.05782384883359    3.08267724091969
H         0.20433275869340    2.33713941262860    2.65760372838643
H         1.74829865194496    2.51737673657958    3.49818687045724
H         1.25811465751216    3.70231923298249    2.27885272149577
C        -0.35256915051295    2.90443017145695    5.22755614104191
H        -0.87686600276688    3.43697861457289    6.01762624989784
H         0.44190610617177    2.30505749512090    5.66602940464210
H        -1.05958416226959    2.22840688871838    4.75178045541620
C         1.37760655283207    9.46324309856398    3.59446475921148
H         0.51021620022771    9.56442555871785    2.93834003798055
H         1.68878014257870   10.46264921090329    3.90490981851554
H         1.08355827844903    8.90064615386036    4.48084859300818
C         2.68126955790477   10.32399084251247    0.81940988433675
H         3.23680507471726   11.19588057909454    1.17336069221400
H         1.61644319816819   10.53498689008867    0.91476246995854
H         2.91208066016015   10.17876866465567   -0.23543506009373
C         5.05095701142400    8.28311779627357    0.16855496896166
H         5.54775986921221    7.32740945787895    0.01133557769029
H         5.81394437773676    9.04383763814789    0.34838921200121
H         4.51675784639795    8.54660166619005   -0.74475174391908
C         5.20327026985230    6.16945896149401    2.56501007586658
H         6.21106277752446    6.56494862816763    2.70733042323404
H         5.20481622619755    5.53968565281951    1.67260813974116
H         4.94858448628869    5.55336231900711    3.42784965300364

