81
CSD_code = IROGUS | q = 0 | S = 0 | Stoichiometry = C22H44N4NiO4P2S4 | MND = 6
Ni        3.17427719783890    0.00023846835313   -0.00009630035817
P         3.66100840330743    1.22055104621502   -2.50856323270602
S         5.19522766575276    1.51204849240787   -1.30758858156882
S         2.35455986038101   -0.29722657528300   -2.12053099659332
O         2.84919806541423    2.58451886097172   -2.65464630024078
O         4.12775091221564    1.01921955613407   -4.03704570715396
N         2.07991817225777    1.49871331436462    0.22585101754475
N         0.75135654713878    1.39449478386614    0.17263147253684
C         1.70498344294565    2.66427602739298   -3.50507515540004
H         1.09336107217693    1.76450913438206   -3.36396382520782
H         2.03987097563205    2.69878254712369   -4.54569893555556
C         0.91895982155481    3.92267271458549   -3.14732723386539
H         0.74184078247637    3.90661985614367   -2.06691868898430
C        -0.42218829486039    3.92087714306477   -3.87525630871834
H        -0.26916339351417    3.90380044099762   -4.95194562796621
H        -0.98530077563507    4.81542151421937   -3.62192527352314
H        -1.01171392956818    3.05005993158838   -3.59792408038165
C         1.73380769864839    5.16681914544179   -3.48922775189721
H         2.70203286147540    5.12250929887373   -2.99777568730079
H         1.21496899026616    6.06390306925976   -3.16027151901890
H         1.89266281502020    5.23205427509321   -4.56358212124094
C         4.92144214727966   -0.11390899394488   -4.36545538576265
H         4.37772798864684   -1.02638678726704   -4.09078546370170
H         5.85205277780417   -0.07312393612278   -3.78607783092847
C         5.21365857167048   -0.09341358043899   -5.86341326671073
H         5.64180991587319    0.88603879099579   -6.10050779755420
C         3.92218945219499   -0.27374133152519   -6.65631504837779
H         3.48632652980607   -1.24927359827604   -6.45106121770747
H         4.11739373597508   -0.19674290369987   -7.72312443253435
H         3.20139242448600    0.49073038773635   -6.37820905411858
C         6.22474824924748   -1.18282331987241   -6.20798088435860
H         7.15710191035444   -1.02932834578976   -5.66993776475706
H         6.43580569480793   -1.17253801124695   -7.27406337546176
H         5.83016386888656   -2.16160492180445   -5.94394275146878
C         2.36949006408670    2.77474035245023    0.44222098695394
H         3.38794767926028    3.10889219417436    0.52133598873267
C         1.18451067690342    3.50606934751395    0.53722321892466
H         1.09006029448784    4.55808329884499    0.70924135012005
C         0.17247114410007    2.58491060064338    0.36673500259309
H        -0.89189585106526    2.70654889877126    0.36613731387502
H         0.33434396432097    0.46731566656613    0.08199771650523
P         2.68846956346506   -1.22067847872392    2.50862176995402
S         1.15483101173358   -1.51159068778942    1.30673421337988
S         3.99611617537651    0.29559362403773    2.11979594529202
O         3.50065119922927   -2.58436528803947    2.65436277714245
O         2.22151114632020   -1.01973035532143    4.03709746069192
N         4.26915771375221   -1.49816578828487   -0.22600064939346
N         5.59769876160050   -1.39406686731194   -0.17253368682508
C         4.64469897769164   -2.66398066427042    3.50507291611438
H         5.25633038480483   -1.76418335066649    3.36415134093924
H         4.30953104262315   -2.69848007045423    4.54560687533207
C         5.43094646952281   -3.92232369275994    3.14758432130635
H         5.60896516280770   -3.90601317189908    2.06732332989663
C         6.77151204919387   -3.92085395770541    3.87661777602419
H         6.61760406341807   -3.90401605023871    4.95318565125507
H         7.33472335185624   -4.81541675727505    3.62354918871178
H         7.36138563098474   -3.05005088441087    3.59998182705277
C         4.61572402979679   -5.16650321589278    3.48848201914514
H         3.64788909806452   -5.12198039369414    2.99627202787970
H         5.13476784757672   -6.06352036867838    3.15967681761576
H         4.45600286707290   -5.23203798843065    4.56269149183745
C         1.42737156193165    0.11309879141560    4.36548620403956
H         1.97051067627333    1.02574696496243    4.09022469474465
H         0.49655411879305    0.07156401412401    3.78651393139752
C         1.13585428750051    0.09293714824974    5.86357159934886
H         0.70822778096994   -0.88662621094896    6.10117456196880
C         2.42764881881678    0.27407103151961    6.65575012468362
H         2.86322687785659    1.24953856149584    6.44957866119698
H         2.23296905649991    0.19778737788493    7.72270404962865
H         3.14846336654262   -0.49045083716939    6.37782739958136
C         0.12445982203066    1.18200960458941    6.20826495899572
H        -0.80807131524752    1.02795157876025    5.67069109088855
H        -0.08609898436790    1.17191947350957    7.27444167134262
H         0.51850370709744    2.16088285136289    5.94376953025682
C         3.97955605742545   -2.77415636511018   -0.44254784022702
H         2.96105420940995   -3.10838085813820   -0.52126984377674
C         5.16446836772443   -3.50553361217931   -0.53763339787222
H         5.25888324412966   -4.55759009648251   -0.70960839547861
C         6.17660185168948   -2.58450729201385   -0.36682819923115
H         7.24099848374914   -2.70621482737339   -0.36612377002917
H         6.01484133424816   -0.46698974356733   -0.08139691146840

