78
CSD_code = IROHON | q = 0 | S = 0 | Stoichiometry = C39H32Cl2NiO2P2 | MND = 4
Ni        4.93449989123112   -3.42992505211670   -4.27810475434388
P         4.08368933061332   -3.20277554232614   -2.33333575414641
P         6.93317705364701   -4.11998579537694   -4.09771991495705
Cl        3.01223071525313   -2.67463312891379   -4.66322522349386
Cl        5.47559248415951   -3.93893200675842   -6.25373074493967
O         4.87059341094351   -3.26249572583440   -0.88365307205838
O         7.68879943906758   -4.36126147697959   -2.65323494402415
C         5.70800791977978   -4.33364107538285   -0.50960112573277
H         5.66732071575029   -5.13985237165224   -1.25301758515019
H         5.33781077620972   -4.72534070268073    0.44415703856113
C         7.69488558953500   -3.34246175298222   -1.67723192460525
H         7.07356505030325   -2.49328661999891   -1.99931811041358
H         8.72352712400611   -2.98730501688981   -1.55113824428158
C         7.16614821991376   -3.87660960951902   -0.33746157975002
C         7.30544705353311   -2.83733742141127    0.75320648080966
C         8.14206955510510   -3.31028348115524    1.77501620483464
C         8.41385306071042   -2.52581315199298    2.88336981268403
H         9.05835914807903   -2.88670339759985    3.67074296976255
C         7.83940151085752   -1.26738771673755    2.96279751047789
H         8.03874039027665   -0.64158235008148    3.82035182324941
C         7.00841742235899   -0.80402914632882    1.95522629282846
H         6.56501581963200    0.17723748856462    2.03735493869146
C         6.73638017667021   -1.58518552415351    0.83930892255078
H         6.07613186120026   -1.22126544585319    0.06908409465842
C         8.02590641907942   -5.00403792711527    0.19213372961259
C         8.58858386583790   -4.64965376830486    1.42743021439600
C         9.42020625069078   -5.52774916328755    2.10193743427753
H         9.85397064142584   -5.25709369260822    3.05281750937814
C         9.68625496747584   -6.76137104778179    1.52994121264836
H        10.33361963900078   -7.45932896290253    2.04041578726952
C         9.13303011853189   -7.10827556067225    0.30761308402667
H         9.35572286908384   -8.07248022527939   -0.12490374073045
C         8.29532396901066   -6.23261219983731   -0.37178731982700
H         7.88405314731646   -6.50840384514303   -1.32959459776354
C         3.02993952422825   -4.68439706168894   -2.17795126857658
C         3.05179003992843   -5.62798385387283   -3.19786780411805
H         3.63074206993045   -5.43132521511383   -4.10449979391722
C         2.33166959375379   -6.80166206517398   -3.07207627587097
H         2.34635707639588   -7.53122090261334   -3.86806370897854
C         1.59373046694039   -7.03619548455081   -1.92288215779999
H         1.02603731022129   -7.94968503129746   -1.82443338227479
C         1.58707361896170   -6.10575424152179   -0.89488985382861
H         1.01690290477581   -6.29654821138237    0.00268150964437
C         2.31181234729605   -4.93386123081042   -1.01422896747697
H         2.32726181559854   -4.20824383695601   -0.21248469043530
C         3.12324142829889   -1.73716647933592   -1.86280921236341
C         3.81840826060829   -0.55128060500849   -1.66560526498874
H         4.89119435877197   -0.53377937532768   -1.80754500460197
C         3.14079389074144    0.60070789807763   -1.31093687248727
H         3.68390161349880    1.52203666912999   -1.15810361038339
C         1.76417490763833    0.57221464962091   -1.16298932383146
H         1.23189020085068    1.47101287397700   -0.88838087844686
C         1.06752773599698   -0.60464324612528   -1.38441593069003
H        -0.00812785570483   -0.62151619912924   -1.28755634292963
C         1.74159854598138   -1.75897851422105   -1.73987575385521
H         1.19643670894671   -2.66925284225385   -1.94094676752191
C         7.34429688106355   -5.76568296437277   -4.73530162928255
C         8.05667124951935   -5.95672828122099   -5.91036823012977
H         8.39514682452219   -5.10319016003113   -6.47884183145727
C         8.30763782346928   -7.24176017570874   -6.35727120201487
H         8.86391428238027   -7.39178003837738   -7.27076297646503
C         7.83946593932129   -8.33396311620419   -5.64496535363563
H         8.03500283360979   -9.33472512839529   -6.00104886423670
C         7.10558656635968   -8.14347662189155   -4.48572496691667
H         6.72263564888715   -8.99319653401506   -3.93921655972605
C         6.85343305608969   -6.86102004034308   -4.03512690270947
H         6.26145653503478   -6.70088300899227   -3.14294756748679
C         8.05615578173241   -2.89023409700631   -4.83444423618133
C         7.53579133703116   -1.66385303097049   -5.22634131690808
H         6.46104085796576   -1.49278244653825   -5.15604632772904
C         8.37591183009792   -0.68234091165022   -5.71872286938994
H         7.97188717043413    0.26895861155996   -6.03150754353861
C         9.73723149716120   -0.92487177742534   -5.81046653520505
H        10.39459399270990   -0.16240280621087   -6.20168694476146
C        10.26094998157648   -2.13952863577818   -5.39511633137148
H        11.32418837159986   -2.31987781158225   -5.45970651953750
C         9.42455275490750   -3.12164254991525   -4.89628571335728
H         9.82125661456818   -4.06763375225652   -4.55378464671129

