80
CSD_code = IROJEF | q = 0 | S = 0 | Stoichiometry = C39H32Cl2FeO4P2 | MND = 4
Fe        2.27315737966125   -0.79960846080597   12.16777828624840
O        -0.00291674022538   -0.53743003055034   15.82440705266495
O        -1.39331796921035   -2.68329179417711   13.20987871976000
O         0.29562004989424   -0.03497385240439   13.29203960438533
O         0.56061676197588   -2.30458946100390   11.53697305771480
Cl        2.21078380194755    0.40230873038846   10.57276762381938
Cl        2.86816503044489   -1.79780347007515   13.80941153570671
P         0.42109501726705    0.49862033624723   14.67060574313380
P        -0.90611776372702   -2.26995461852300   11.73166252524020
C        -1.23187654393790   -1.23711975431472   15.72591921205746
H        -1.80883975053081   -0.87833099276239   14.86708661462844
H        -1.79326587720839   -1.03425732940016   16.64549684647099
C        -0.47947435491182   -3.12159936411248   14.20493856455815
H         0.50031057932906   -2.66256260800294   14.04666018123158
H        -0.37078164106701   -4.21002577486254   14.14136170912321
C        -1.01933764649359   -2.75495666201367   15.59214677926990
C        -0.10421157560634   -3.28627289327073   16.67517982817920
C         1.23756694217190   -3.03881380933831   16.87400438891786
H         1.79714079898357   -2.40927879562783   16.20072907350303
C         1.86452330425843   -3.63779498617093   17.95993869693638
H         2.91475602506904   -3.45376252297132   18.13008929832037
C         1.16707467217244   -4.47298682705954   18.81895192934612
H         1.67830327624165   -4.92732709778178   19.65530310442660
C        -0.17579442763981   -4.74231407997412   18.60912029402090
H        -0.71513090796814   -5.40556714990549   19.26883201085393
C        -0.80851926092424   -4.14632164711868   17.53089170929587
C        -2.17724495985330   -4.26193957123331   17.05255833921765
C        -3.24565717957801   -5.00039028673935   17.53407146166766
H        -3.13860657264515   -5.61519596559849   18.41495588621811
C        -4.45498829904305   -4.93670879370405   16.86076350432948
H        -5.29831698267446   -5.50841999561501   17.21962821017884
C        -4.59522675708173   -4.14738128665002   15.73024512630866
H        -5.54586801838873   -4.11188725071989   15.21850009260895
C        -3.52839358023860   -3.39942648279948   15.24819420188958
H        -3.64402515251940   -2.78839570142163   14.36682349603631
C        -2.32004293956474   -3.46436146066146   15.90755483406412
C         2.09801572968669    0.93601984665975   15.17562068307558
C         2.89040285456795    1.55511700335999   14.21547345152540
H         2.47548332896757    1.76063814327397   13.23408478051137
C         4.19447177239738    1.90183866950299   14.52063697974095
H         4.81609922464855    2.37342038706354   13.77448865257940
C         4.69925950928575    1.63682217710228   15.78430065274669
H         5.71999391893348    1.89828389798704   16.02085284959985
C         3.90177741708136    1.03248217471202   16.74266837833309
H         4.30175377981840    0.82452237410461   17.72404245376717
C         2.59604080428475    0.68417485654368   16.44425597638047
H         1.97075128289003    0.19529969979955   17.17476911782247
C        -0.64902377887607    1.95104542195349   14.87353094075328
C        -1.15715754147098    2.56713743877140   13.74034971056763
H        -0.90796423650166    2.16254489795912   12.77112188881107
C        -1.97524295282668    3.67544205741611   13.86983250060773
H        -2.37446309714111    4.15571634295720   12.98919258056220
C        -2.27794706599651    4.16742884912106   15.12914072350635
H        -2.91637094169647    5.03261951488135   15.23112747746049
C        -1.76202975057684    3.55510520913591   16.26143699996263
H        -1.99813054473121    3.94427322663755   17.24088011039784
C        -0.94341289458063    2.44768966960894   16.13553480443313
H        -0.53131979874226    1.96010576050653   17.00731284859120
C        -1.73572669297769   -0.68662972669081   11.41634093766304
C        -2.89437197986296   -0.33426082646366   12.09191217910007
H        -3.29369106259731   -0.99707227521728   12.84461933237501
C        -3.52473249549551    0.86281470950516   11.80447906392405
H        -4.42144704894536    1.14295682886190   12.33847662765622
C        -3.00552315047809    1.70199122410585   10.83136462459654
H        -3.49975576712521    2.63618189837819   10.60703376881963
C        -1.85511183720573    1.34420797603564   10.14696233578680
H        -1.44617005025504    1.99882939555004    9.39189536027213
C        -1.22289168651626    0.14681178582404   10.43425906838787
H        -0.31632364801333   -0.13463707583774    9.92095401017043
C        -1.74496053389279   -3.46802978246997   10.65178086417342
C        -2.78232216920678   -4.26939211291512   11.10339165445746
H        -3.09565577178194   -4.20396383072525   12.13463217879880
C        -3.39512251167513   -5.15557665198153   10.23486573000658
H        -4.19892623878236   -5.78596806692081   10.58651288234848
C        -2.97780339697796   -5.23598964222215    8.91626662030470
H        -3.45797654390150   -5.92857607276710    8.24065746276996
C        -1.94281938184734   -4.43293070259991    8.46368712148499
H        -1.61613176429671   -4.49964769630924    7.43647187744825
C        -1.32794985414406   -3.54819169037484    9.33081839631653
H        -0.51103217183705   -2.92293357309827    9.00249379905962

