51
CSD_code = IROLAC | q = 0 | S = 0 | Stoichiometry = C22H20N2O6Zn | MND = 6
Zn       -0.00001442811610    0.00000129723940    0.00002018416515
O         0.01484844074338    0.26754347584932   -1.90225065383596
O        -0.86644390997221    1.62952717211367   -3.42093430187007
O         0.61338473519205    2.13211223128489    0.38119141593513
H         0.79148258806027    2.20103369743656    1.32680610596720
N        -1.97841593075905    0.74006647691990   -0.21118459883998
C        -0.87524822105055    1.06126045317593   -2.34363450445979
C        -2.06559562425991    1.26697637946416   -1.41070688958597
C        -3.19397099749370    1.96286280450392   -1.87630522906690
H        -3.15948341687013    2.36596446668529   -2.87613323706568
C        -4.27469618115729    2.09159021645214   -1.05188098047181
H        -5.16776463162434    2.61272351470709   -1.36724147901760
C        -4.22231581403847    1.52622256852249    0.23903690700079
C        -5.30136691275640    1.60320920426683    1.14306560040965
H        -6.20039135161164    2.11456298779460    0.83011469931813
C        -5.20790632789711    1.04312962671381    2.38631760724075
H        -6.03773760777887    1.10404349213957    3.07471348326078
C        -4.02866556200382    0.38989031605247    2.77849900754734
H        -3.96660059545078   -0.04066911908573    3.76651390611674
C        -2.96164434006568    0.29599849132103    1.92768657392585
H        -2.04335503324229   -0.18273971529490    2.22619771128162
C        -3.02932283518450    0.85565518319795    0.63637430732987
C         1.60058434459330    2.84702035738622   -0.34189454011883
H         1.58582322703152    3.90480617624224   -0.06416588592756
H         1.35014738534819    2.74940046542998   -1.39601585891367
H         2.60029970722627    2.43672551519188   -0.17416025577985
O        -0.01473992290938   -0.26746525576492    1.90229768990650
C         0.87516656158654   -1.06145461174308    2.34357500224077
O         0.86646620149046   -1.62947672895986    3.42101400562965
C         2.06558335087616   -1.26697726125676    1.41069701074586
N         1.97840766301367   -0.74004859362653    0.21118665284476
O        -0.61338077637197   -2.13210238735666   -0.38124955746578
H        -0.79150182506404   -2.20105808589387   -1.32685624443687
C        -1.60055951954290   -2.84698325906348    0.34188784000101
H        -1.58579825688860   -3.90478251686059    0.06422319960280
H        -1.35010982924288   -2.74929835708206    1.39599526884234
H        -2.60027694772029   -2.43670904455450    0.17414909260860
C         3.02931083134697   -0.85565796073499   -0.63637456362632
C         4.22229043565269   -1.52626096772638   -0.23904690540929
C         4.27467576725832   -2.09162129628838    1.05187247349242
C         3.19395460565649   -1.96287508716758    1.87629881489937
H         3.15944931949075   -2.36601704655083    2.87610974580501
H         5.16774251896629   -2.61275711643023    1.36723366517253
C         5.30133628141752   -1.60327089870263   -1.14308114763654
H         6.20035601926278   -2.11463308136003   -0.83013128685968
C         5.20788945607173   -1.04316793056693   -2.38632346036449
H         6.03772929616244   -1.10406908351458   -3.07471144229120
C         4.02867960289198   -0.38985865125613   -2.77848039531230
H         3.96664516315291    0.04075246274291   -3.76647466126945
C         2.96165917130362   -0.29595636643468   -1.92767036969301
H         2.04339412527728    0.18283139044236   -2.22616952197204

