39
CSD_code = IRONEI | q = 0 | S = 0 | Stoichiometry = C12H12Cl2N8NiS4 | MND = 6
Ni        7.39523378548490    4.78865604245061    3.70502178106547
Cl        6.00423750865674    3.69768096288242    2.49735769889755
Cl        9.01692983749986    4.41973431105719    2.35758422720036
S         5.74559478053057    8.07502592679463    0.67880644763842
S         3.93263181100864    5.83732478742541    6.41789206163127
S        10.35915573892462    6.84550891604970    6.43303074385034
S         9.19043286638719    0.64890802060058    5.22957705455803
N         6.81218726557717    6.69661178160663    2.57688201906940
N         5.87176774787156    5.46022327414532    4.77935509249783
N         8.69991190620075    5.48410453511774    5.02524639131535
N         7.97950057403188    2.89215098411586    4.85181653764109
N         8.21647120062711    6.89586341000464    0.73842287353918
N         5.88063648847653    3.95667846143654    6.56605189281001
N         8.56439209592056    7.78123685771004    4.62828467084933
N         6.84068349171630    1.10506851122499    3.90116918785878
C         7.05808592217724    7.11236766353213    1.36924866430421
C         4.85441884086881    7.83303443432435    2.14154602383800
H         3.86572053199499    8.22743940280785    2.24479201310545
C         5.56478883186092    7.07250293535948    3.01502071419039
C         5.14552518444095    6.51963668666768    4.28534425399863
C         4.07091827572358    6.86856273666220    5.03654813164459
H         3.36239759577637    7.65193137732910    4.87009577256742
C         5.35907131172068    4.97764317669909    5.87084693062342
C         9.09433510030103    6.70504976815957    5.22727442734627
C        10.32918965003778    5.12539768676233    6.60958933209587
H        10.98858244271763    4.63808861539750    7.29591173324183
C         9.39993200725598    4.57669593580007    5.78708552468987
C         9.11870503582067    3.17392277702951    5.56757000816394
C         9.88245677672412    2.09461038433992    5.88005788838047
H        10.81161230499293    2.06020619588557    6.40854226328646
C         7.87511230216935    1.62738742972301    4.56700995403875
H         8.73968691110613    6.08703629747137    1.11407164910377
H         8.25159403923453    7.04471492372814   -0.25602851000624
H         6.56865975394656    3.40810318416572    6.04795327051862
H         5.30454317718792    3.48940408185851    7.24434529281543
H         7.99710227042956    7.56467191687231    3.80738942254168
H         9.07456553208968    8.64688208488635    4.64644057033661
H         6.33246913210237    1.79860556795495    3.32703305406279
H         6.93735997040728    0.17702795396141    3.52481293469172

