96
CSD_code = IROVUH | q = 1 | S = 0 | Stoichiometry = C46H43FN3NiP2(1+) | MND = 4
Ni       12.49419712056477    8.61382610232997    0.88572440159796
N        10.88001543522844    7.96638439356108    0.02493730379526
N        13.32783321255899    6.92281104035148    0.12874091579161
H        14.05517340283309    6.99923483106077   -0.58259030949523
N        14.22115450327369    8.91343527369313    1.76255082673697
P         9.85850069393070    8.63830866162454   -1.00203653736972
P        14.58965853804464   10.00103460317424    2.88937745878720
F        11.51472271674414    7.89303214335144    3.10025653695329
C        10.61107534639410   10.16668572583744   -1.60743286822175
C        11.99848299399333   10.24667514840229   -1.66488305235706
H        12.60219620205027    9.43614789429626   -1.24082982895154
C        12.60213576755742   11.34503118430257   -2.25030030006145
H        13.67887248391289   11.39818480443336   -2.31788642083793
C        11.82276906869538   12.37072719968158   -2.76380333154746
H        12.29253508055219   13.22493526729117   -3.22794157896952
C        10.44106712441714   12.30355030933719   -2.68282161699201
H         9.83749885535915   13.10914276437791   -3.07216607669950
C         9.83126974582015   11.19827224338704   -2.11521581693965
H         8.75429525430082   11.14026709090903   -2.05692835095440
C         8.20362039588186    9.03431952825932   -0.34923144168924
C         7.12251886117759    9.28327820461191   -1.19049112049088
H         7.24496003156941    9.21662361056979   -2.26341306053766
C         5.89114436176694    9.59705489470405   -0.64550315993454
H         5.04972534816077    9.78816479957492   -1.29436972837276
C         5.73496786830154    9.66199027792522    0.73110480691596
H         4.77062024679577    9.90636240215296    1.14967182983400
C         6.80899711870123    9.40648303667254    1.56808551318787
H         6.68612527594441    9.45094013995152    2.63945724989995
C         8.04273177934757    9.09026311627227    1.02876540384163
H         8.89240264321833    8.88287254803689    1.66200340606053
C         9.56835497409169    7.57168044502214   -2.44493167643671
C        10.43547307451154    7.62674239115803   -3.53046128786243
H        11.21775803716833    8.37365275267326   -3.55221138279964
C        10.27949934353991    6.73984789202015   -4.58006357945465
H        10.94335699131199    6.78952551849452   -5.42995468278473
C         9.27125340802587    5.78894602427676   -4.54143192515195
H         9.15191971102291    5.09799957552153   -5.36164828905485
C         8.41508871811506    5.72409629005942   -3.45375050470928
H         7.63200497684663    4.98182922105075   -3.42429617709570
C         8.56161413298834    6.61263664168698   -2.40315340665088
H         7.88938172017366    6.57628763088813   -1.55570441457296
C        10.93015233459334    6.51704529292317    0.21481407782935
H        10.10420681426161    5.99975296314208   -0.28677206403831
H        10.86860215441081    6.28549790255532    1.28360573881759
C        12.27155936347599    6.02125655919186   -0.34736240792063
H        12.46254254102149    4.98273283756145   -0.05197388550482
H        12.22669021559702    6.07378642496824   -1.43966056294622
C        13.97859927633364    6.50173344878947    1.37390611307605
H        14.52430526232254    5.55364554019714    1.25222601880184
H        13.21487243263639    6.36963338649173    2.14645367386178
C        14.93490294316563    7.62169494354171    1.77804582277529
H        15.38224857069587    7.39291641836139    2.75086288394820
H        15.75426803812518    7.66306880321012    1.04453214383302
C        14.52571887699237   11.66302724650603    2.18907801193837
C        14.04588750100368   11.86871598625109    0.90573224891105
H        13.66230180478022   11.01562710781780    0.35545277229206
C        14.05395570395384   13.14442451695414    0.37001988311480
H        13.66797754556591   13.31652167142157   -0.62341520453027
C        14.55578613995434   14.20398175220850    1.10860084595456
H        14.56337545927837   15.19810868654432    0.68805643126064
C        15.05732461612408   13.99264544179971    2.38409230078236
H        15.45922990092834   14.81838199744710    2.95127239410062
C        15.04618738672077   12.72168399167259    2.92745566567294
H        15.44550015258243   12.54174476026741    3.91688885439671
C        13.61569247437458    9.99457228169619    4.43416113223166
C        12.96107498372227   11.11780074450851    4.92229242081644
H        13.00692769468092   12.04966604257531    4.37858197044018
C        12.24000088447840   11.03188975977236    6.10019385943773
H        11.73508240456553   11.90608646190332    6.48214347818769
C        12.16173462423070    9.83074166060007    6.78575456392989
H        11.59877436472953    9.77008915402482    7.70477635892172
C        12.79981144854779    8.70353897907585    6.29116311952900
H        12.73170768868103    7.76490052770446    6.82036353964149
C        13.52602892046542    8.78487138246442    5.11850839552649
H        14.02118877783575    7.90853577662835    4.71999143156934
C        16.32221539289683    9.80334451494396    3.39768923191826
C        17.26819977095814    9.90710937341357    2.38131817501822
H        16.93309163746251   10.09860295316321    1.37012874711526
C        18.61203390889614    9.77541618682628    2.67187365666395
H        19.34668639210588    9.85694109161997    1.88518484239303
C        19.01523793252979    9.54301831210856    3.97864571833074
H        20.06477146206249    9.43948314996195    4.20733711299070
C        18.07557248238581    9.44948783963242    4.99148776302584
H        18.39234068483550    9.27571859411899    6.00865498698366
C        16.72643020345541    9.58140609488210    4.70659270497113
H        15.99446647582252    9.51687396499311    5.49901794445910
C        11.52297951599243    9.87569973265089    1.85272228919110
C        11.06145586111182    9.19147213849685    2.97834623837923
C        10.19576802213215    9.70302010700399    3.91791819947263
H         9.88065109890076    9.10444053977971    4.75806827446467
C         9.75024092947536   11.00257322621901    3.73093165384059
H         9.07020481880088   11.44362574538342    4.44282651163233
C        10.17086626882278   11.72309679770697    2.62807338347332
H         9.81458455086375   12.73191483267851    2.48109921270101
C        11.03914612017210   11.17141742896541    1.69363684086694
H        11.32746460460761   11.76833330169264    0.83998075902837

