66
CSD_code = IROXIX | q = 0 | S = 0 | Stoichiometry = C24H36IO2P2Rh | MND = 5
I         5.12499492947308    5.23840415751849    6.56638927623751
Rh        4.09023519032328    3.74255313783576    8.46866491286372
P         4.25052147387845    5.27863549719907   10.13376970274260
P         3.25560559552406    2.11544316113319    7.11985429791628
O         2.09609347863683    1.41011436755592    8.02574769114936
O         3.17929019754805    4.76297213034097   11.25087557642586
C         2.35134393057579    3.73044597848696   10.84073622688170
C         1.28744075463944    3.32591947369721   11.63099251002978
H         1.09453107092791    3.82751931688946   12.56631985334668
C         0.49136213406370    2.27537617736897   11.20203187781953
H        -0.33699788601122    1.95419740100256   11.81393700167931
C         0.74053836308959    1.63053532345393   10.00072575575872
H         0.12222701109209    0.81198127790817    9.66712874138884
C         1.80816879549879    2.04726985770692    9.22163205871870
C         2.62111900419759    3.09997189110543    9.62987875271514
C         5.27895963381264    2.43291920830064    9.45606737453704
C         4.98108749725334    1.55856092193904   10.49095626458164
H         3.98542249527979    1.48827289782685   10.90341744586017
C         5.97345579912334    0.74616018759365   11.02107740830931
H         5.72406409744226    0.07093292866366   11.82678357046045
C         7.26500636523907    0.79406228641404   10.53075425548520
H         8.03144943428912    0.15877768321413   10.94874669104373
C         7.56806074116900    1.66434942239755    9.49792394808764
H         8.57189145251389    1.71572123961575    9.10153078002004
C         6.58153619232818    2.47789575925861    8.96482151431307
H         6.85423363968324    3.14893336804659    8.15589487930933
C         4.07708728312404    0.60055261601138    6.44230904305643
H         3.27958365050774    0.02225191793416    5.96111979698772
C         4.68210719105977   -0.25322551273071    7.55052608254798
H         4.98493355692496   -1.21912573996935    7.14877816631363
H         3.95779523895375   -0.42456371024624    8.34511721024545
H         5.55812607121513    0.22668718037698    7.97894641949766
C         5.12905458098010    1.01666396436679    5.42167317696280
H         5.87823529004253    1.65105179588925    5.89288149655603
H         4.68672143582439    1.57034292898735    4.59573825805645
H         5.63180061330535    0.14007303074045    5.01674039664843
C         2.25058238836000    2.74164772531947    5.67403326530056
H         2.95288212071350    3.22155279270752    4.98367256838735
C         1.47341118633129    1.64533489213407    4.95574162692648
H         0.93920662524159    1.02510011759211    5.67442981590218
H         2.12468886008550    1.01451025750746    4.35574465227073
H         0.74152493381497    2.09778467830866    4.28796412025341
C         1.30052585244361    3.80396165565351    6.22131316122993
H         0.75512116956121    4.28798230796263    5.41292027038509
H         1.85832866322887    4.57583393305408    6.75697016304639
H         0.57934762926657    3.36061511747976    6.90864663193820
C         3.54006103955870    6.95213828322965    9.70046312994320
H         4.20378998986150    7.39516830284651    8.95006773243596
C         2.17696876771208    6.69896002733186    9.06083457742729
H         1.47671988302954    6.29420079230249    9.79192864471457
H         2.26655321296199    5.98246519065776    8.23986640640706
H         1.76134467764047    7.62055003671543    8.65697417042673
C         3.40518944807086    7.88311259995965   10.89897923616910
H         2.78165496687272    8.73427671596220   10.62868846861915
H         4.36921926182293    8.26705783262884   11.22358231389549
H         2.92956937714424    7.36466585228407   11.73069850145962
C         5.67496842254523    5.69006417630995   11.24143412292459
H         5.27647470755120    6.38385718648951   11.99107435179451
C         6.19740981633022    4.45389587453636   11.96379335360200
H         6.70794148416719    3.78637245341541   11.27438820194155
H         5.38136951371865    3.90766312183106   12.43392054659505
H         6.90378366423822    4.74931813966680   12.73824517511603
C         6.76922829000469    6.35852847124354   10.41838136003000
H         7.62131731334236    6.60490112059036   11.04955023471627
H         6.41353285535720    7.27411331978906    9.94979366425316
H         7.11099757549432    5.68643350065550    9.63271111733209

