67
CSD_code = IROYAR | q = 0 | S = 0 | Stoichiometry = C35H28NPPtS | MND = 4
Pt        4.93969956551264    1.02196887888994    4.74569175304442
P         3.91207867320492   -0.05969206835349    3.04589534506182
S         2.81914441082646    0.78166583173724    5.98887780575803
N         5.90404782019200    1.95665045921101    6.25273836047130
C         7.59428116535484    2.17329077470722    4.61333972941484
C         7.96412458969704    2.87979873003107    7.01543185142551
H         8.97939485367115    3.17498254007707    6.80624827803572
C         7.44836599367973    3.01894594098846    8.28915313031328
H         8.05427074631112    3.42772093879194    9.08390750879093
C         6.66641067073793    1.51858490926563    3.77358638543430
C         8.80665256683392    2.64707715714648    4.11204563905061
H         9.51113601411086    3.14702395896352    4.76064624608390
C         2.30129112382611    0.80089889543633    0.88031242613484
H         1.95407611112208   -0.21958248198988    0.78884797437971
C         3.21296894085653    1.14161676388658    1.87576306314702
C         5.40870501180888    2.09278212637017    7.47905464240954
H         4.38302558320140    1.77224939093788    7.62550162277322
C         3.60033848237056    2.46896722297695    2.02920903435393
H         4.28328837370777    2.72449955920365    2.83669099691287
C         7.17252946410673    2.34870209406075    5.99750219104158
C         8.19137645486474    1.89252364551197    1.92820965611380
H         8.41343025254039    1.79375175735913    0.87496938764450
C         6.13994881548917    2.62345990328903    8.52559980226151
H         5.69172430223784    2.71824811918581    9.50123671548763
C         9.10848520139326    2.49613842854082    2.77420301492170
H        10.04828414841832    2.86157855785039    2.38669525724264
C         6.98805750525129    1.41834838128404    2.42368508639468
H         6.28935827836532    0.96638480908027    1.73063484280542
C         2.22295505985470    3.09373890292008    0.17131198998567
H         1.83738419458406    3.85088691198461   -0.49555147125247
C         1.81553516841032    1.77656831891519    0.02883395353492
H         1.10975491542164    1.51052412753491   -0.74482479693755
C         3.10853890509893    3.44160618459250    1.17823504863474
H         3.41011372946144    4.47112509805522    1.30241847342428
C         5.00939400472192   -1.14619286837986    2.06962428170077
C         2.50209649129345   -1.17941052429722    3.32087934895552
C         4.83229070567325   -1.42735951074208    0.72142183410235
H         4.03010149038321   -0.96091179805848    0.16911379620130
C         2.98039699393292   -0.91399198544198    6.33241866607714
C         6.06524038406176   -1.73413793975898    2.76013035226610
H         6.20956611944589   -1.48277692147033    3.80511162885184
C         2.67660187590386   -2.55594667676544    3.40162000079435
H         3.65762796410329   -2.98591937349974    3.25624860213704
C         4.20759024626832   -1.56729701973876    6.20723661828485
H         5.09892195749070   -0.98454630246553    5.94722575445066
C         0.16527855448562   -1.45342542845876    3.80810047665694
H        -0.81095780474257   -1.02262439897117    3.97647043345156
C         1.24004545957799   -0.63002641430146    3.53326318354175
H         1.11194058491211    0.44315723171157    3.49730208178468
C         1.86724983785737   -1.64561663277460    6.74731802865875
H         0.92117751622318   -1.13705938829911    6.86138966997190
C         6.74344409782396   -2.88218527994558    0.77149832835692
H         7.41702358528594   -3.55606174416007    0.26291727157444
C         6.92677221039535   -2.60115980692353    2.11614524095758
H         7.74426668818781   -3.05392056282667    2.65765769464846
C         1.59583643758949   -3.37458738978660    3.67611057722864
H         1.73741541865406   -4.44331965510174    3.74041748594153
C         4.30612191715083   -2.92369973165710    6.44465419737628
H         5.26123423201475   -3.41860565293670    6.33176884577563
C         1.97660168940780   -2.99696497646867    6.99467008767742
H         1.10535104491718   -3.55355682320470    7.31068039890923
C         0.34123041313273   -2.82604089128836    3.87876025291658
H        -0.49926635530511   -3.46732822813115    4.09991297732646
C         5.70119203566450   -2.29123306363924    0.07703646910910
H         5.56433006038061   -2.50263482346851   -0.97360442596123
C         3.19144552911051   -3.64712539510053    6.83395621619148
H         3.26986152146588   -4.70812479206103    7.02094267978810

