41
CSD_code = IRUCEE | q = 0 | S = 0 | Stoichiometry = C16H15BrMoN2O4S2 | MND = 6
Br        1.91260113590845    7.80597266228494    2.09476034788185
C         4.78077096651420    4.63103710433752    3.99338190889959
C         4.91832791795664    5.01262448621161    2.64964136763611
H         5.70886383293064    4.55900917871022    2.06907441107796
C         4.07980352330482    5.95274621139758    2.09507580733348
H         4.19542243479158    6.25024198672333    1.06418629889668
C         3.07388377662739    6.52105975807718    2.87423356862302
C         2.90311933022924    6.16595949284781    4.19203808991424
H         2.12014597472740    6.61716420345965    4.78307406684396
C         3.75608871410735    5.21987948162256    4.77982531146292
C         3.57638286393916    4.84960206158916    6.14541155759254
H         2.72800382587087    5.27824865526490    6.68023527204623
C         4.73508879743909    3.18156782895093    8.86828789553273
C         2.67825536173004    3.89419367375458   10.55563531456183
H         2.92696561620583    4.90116207019196   10.22662123889621
H         2.00949882292401    3.42221316042999    9.83918395268164
C         2.12579713874735    3.87453967188300   11.94283046571475
C         2.58478561878710    4.77980008489160   12.89258916040686
H         3.33955020916296    5.50173090914524   12.61781205524873
C         2.08317998706973    4.75759927837890   14.18103033819522
H         2.44522088374506    5.46610551798325   14.91096348736735
C         1.11916582866350    3.82838154954491   14.53508737921673
H         0.72746718992511    3.81107463238713   15.54105578564528
C         0.66075769492807    2.92030473673249   13.59613691739169
H        -0.08892568302331    2.19244953689223   13.86865892890028
C         1.16375346707571    2.94090286006836   12.30749981923282
H         0.80789255634661    2.22865613020057   11.57755592360786
C         4.35861650969322    0.97417412582713    4.57772607395851
H         3.43238887443827    1.54381968976607    4.49503478570319
H         4.12576592570262   -0.09420960852590    4.54090866556150
H         5.02193248850475    1.23432768294695    3.74714933604385
Mo        6.38438186479229    3.48863165378987    6.16276712975263
N         4.34990785571034    4.04827763648769    6.81406754195975
N         3.95535028975546    3.85579024131269    8.08990500317764
O         5.56451975395926    3.72041800786776    4.51379929383774
O         6.93654465882506    4.95854205590944    6.63566940140290
O         7.49339745828533    2.32982168401562    5.80992994764763
O         4.94384002783614    1.30319342176195    5.82946695627612
S         6.24160369866643    2.47398860910632    8.38244047105898
S         4.26144638707268    2.93710545754814   10.50855994103913
H         5.77633642011323    0.80979241822284    5.90388878177763

