53
CSD_code = IRUDUW | q = 0 | S = 0 | Stoichiometry = C21H17Cl5F6FeN2O | MND = 4
Fe        0.75874311573048    7.28549855455269    7.49675945488479
Cl        1.05489337597661    8.68710187943009    8.92206963793352
N        -0.52013730260792    6.46471811432600    6.22512066797183
N         2.12117691108021    6.40026112515632    6.46326061599345
C        -1.40039726949272    5.39961293632341    4.13968822054458
F        -1.88245626059759    4.14937164401833    4.24101618855355
F        -2.45750745021261    6.22242665167724    4.16205800289009
F        -0.89725722372088    5.49776003162387    2.89769985009993
C        -0.32670949330598    5.69354656387082    5.17625352052133
C         0.90276600474869    5.10622974304521    4.87408456978590
H         0.95122936552321    4.38439898856693    4.07739704382132
C         2.07772822365146    5.49381247142560    5.50878094719952
C         3.36374548451404    4.81244848504777    5.07484416122200
F         3.13848263761145    3.63155134746456    4.48734545931641
F         4.09709985927092    5.52677183308985    4.20507623992718
F         4.17063247956589    4.56124429030830    6.12079176171847
C        -1.73641054783651    7.07397928325057    6.52543654030677
C        -2.89058318812489    6.38937080349387    6.92419355636199
Cl       -2.86760118739726    4.67025021772771    7.02325038914517
C        -4.05038548134976    7.07806303114711    7.24470123838699
H        -4.92493084259688    6.52271052052158    7.54289983044222
C        -4.08008741738893    8.45872908840047    7.17860102917391
H        -4.98756490561147    8.98683170432273    7.42251851890804
C        -2.94893231103710    9.16955223935269    6.80570003896911
H        -2.95720479512021   10.24600880679375    6.75803134601852
C        -1.79754055792775    8.47692376170747    6.49364874176617
Cl       -0.33991883552327    9.29127355294601    6.05432627947815
C         3.30129054013423    7.08689953988729    6.76385575723430
C         3.84669029139321    8.00191476453651    5.85070176165589
Cl        2.99001956298677    8.31008357585170    4.38713514516435
C         5.01625494026816    8.68442701246543    6.13504255024921
H         5.41604680311039    9.37394251755422    5.40944800863930
C         5.64972931825186    8.48233214793750    7.34925042065766
H         6.56518118648928    9.00839427905167    7.56764721741423
C         5.10224739847048    7.63355603850684    8.29717388046982
H         5.56973979595510    7.49893611637428    9.25875450158746
C         3.93407412022012    6.95418400986999    8.00686462879003
Cl        3.17199412219308    5.96102719096922    9.17554247223907
C         0.54245649095546    3.74062675270442    8.08547030781904
H         0.41203986211144    2.66237212298281    8.10875980128395
H         1.60323441835624    3.96794483489397    8.10959118603101
H         0.12220251475472    4.12667500382371    7.16460247605183
C        -0.15650901232694    4.35654094387853    9.28105708450328
H        -1.22848976261824    4.12175659556911    9.24918590997951
H         0.26176956158095    3.93541843942709   10.20716945243858
O         0.02559594343512    5.76758352493423    9.30451941669398
C        -0.54242979863077    6.36150640097806   10.46862164234160
H         0.09255241621021    7.21320815971099   10.71867179952989
H        -0.50662961981748    5.64503654995163   11.29727012482372
C        -1.97111771592005    6.83963073223420   10.23942084679406
H        -2.36184053263724    7.27286847690551   11.15555664917651
H        -2.61557386450143    6.01791821012653    9.93761536806280
H        -1.98210136825596    7.59856838927698    9.45891773903066

