36
CSD_code = IRUMOY | q = 0 | S = 0 | Stoichiometry = C13H17AuClN3O | MND = 2
Au        6.28357167960652    3.04988647716055    8.39744182138898
Cl        4.62848667785305    1.95990929175560    9.44012564313963
C         7.75444771089607    3.93484180811600    7.38612278107303
N         8.05527727121198    3.61482990162295    6.10774833477210
N         8.64770300505281    4.85672094625359    7.79229768931414
N         9.75710295597307    4.26167254571245    4.52121882869083
O         8.80540928069539    1.07649305982867    6.63900317968010
C         9.15934737317059    4.30954279116064    5.69620548068026
C         9.54194297564035    5.12297555065634    6.78324833649911
C        10.65152547333346    5.94089631897089    6.64140599813087
H        11.00727353964404    6.57956198380944    7.43534617816990
C        11.28876315725586    5.88645276062355    5.41116662070853
H        12.16088797709280    6.49306516352296    5.22777285897828
C        10.81184574216843    5.05112933515070    4.40107203980383
H        11.30544657802739    5.01269111078893    3.44082181072228
C         7.42603875585819    2.55711313070693    5.36987930151817
H         7.79156161952449    2.60704780692665    4.33972196300586
H         6.34046708425489    2.67564268934330    5.38615340899346
C         7.81800139035765    1.19574281382443    5.96606093868334
C         6.86254545053954    0.08966478598547    5.64558682308956
H         7.34083743348597   -0.87573199107209    5.78616653193977
H         6.47204867222537    0.18097872553191    4.63582058655601
H         6.02813136864284    0.16211237908915    6.34464790463533
C         8.65008050378431    5.50562952626760    9.07885903874868
H         9.67360418656877    5.49949762234195    9.46543082745524
H         8.01768727981939    4.91843105463046    9.74655296068682
C         8.13789319346720    6.94680877874940    8.98597582489825
H         8.28884624130151    7.42330913690219    9.95579265646756
H         8.73774998609684    7.48741995097122    8.24967837219852
C         6.66135799092671    7.04478975454327    8.59948328293917
H         6.44664712120125    8.08323355072748    8.33801395815316
H         6.47422204290454    6.43677042539898    7.71092117147693
C         5.71901209003662    6.61307567191865    9.71623670506683
H         5.81642988414466    5.55138869318939    9.93109728552299
H         4.68816061924059    6.79520390751714    9.42451225740662
H         5.92204568799552    7.17400254137377   10.62571059881440

