101
CSD_code = IRUNOZ | q = 0 | S = 0 | Stoichiometry = C40H54PtS4Si2 | MND = 4
Pt        6.10056654531090    6.72179359805554    5.04167944998017
Si        6.12637659761291    5.11291124368569    3.37957077872985
H         5.51533671973113    3.75008482865516    3.50730247283006
S         6.34300207487605    8.65452599246264    3.32034098110411
S         7.69223559421821    2.83610227672077   -0.58367953712662
C         5.11166968404801    5.89064314995202    1.95176992776010
C         5.50580917329096    7.06558520249677    1.30906900334250
C         4.73205693959599    7.59808955674655    0.28642229023276
H         5.04859041300731    8.50827966302407   -0.20512306661372
C         3.56364542178563    6.97445012704372   -0.11181245600692
H         2.97490347916310    7.39225802273214   -0.91508959196446
C         3.15183504387362    5.82101727110262    0.53274882733006
H         2.23409068527976    5.33287697361813    0.23874061536123
C         3.92026930607889    5.29609267455629    1.55531521409633
H         3.59291270316742    4.39850424679860    2.05989922852725
C         6.73705806505865    7.79161571345602    1.74702167305584
H         7.01624071719748    8.55852014180731    1.02396934301890
H         7.56937022306789    7.11314531308635    1.92716225895559
C         7.97331558688419    9.27256199215841    3.91371131998212
H         7.67809410853599    9.90862282239847    4.75539239035599
C         8.85073348280609    8.14086962561156    4.41825218906213
H         8.28568177450169    7.50487562503850    5.11570424621714
H         9.71225736961825    8.54362056753144    4.94802962156694
H         9.21310522378867    7.52453401161701    3.59687472221710
C         8.65185793585042   10.11792117436202    2.84987504495874
H         7.96972313737472   10.86958856742758    2.45650028297992
H         9.00686688196886    9.49809604250887    2.02854806969183
H         9.51093885186999   10.62772041172996    3.28229225348482
C         7.94125034941055    4.74260875528868    2.87083542632469
C         8.39311445510394    4.44777401746431    1.58203487043401
C         9.74838211848680    4.23206313214639    1.35109217379732
H        10.07249844267599    4.00735125733278    0.34460084094935
C        10.66491508628747    4.27950723963446    2.38252050866203
H        11.71287620452265    4.10794742909368    2.18437325001358
C        10.22564567088535    4.54110896459258    3.67007446157020
H        10.92761919423725    4.56960847790306    4.49075527244705
C         8.88316315497850    4.77277729372773    3.89841936946832
H         8.53914952524605    4.98126943033900    4.90341575669393
C         7.45944047116123    4.35064328475777    0.41596995595847
H         7.65155078700962    5.15369138804664   -0.29966182981603
H         6.41646875774185    4.39590063640188    0.71381706187435
C         6.88786083091018    1.51471872152411    0.40712220111683
H         7.03582878908806    0.64561859830323   -0.24153629150950
C         5.40060395064158    1.77305885892664    0.57892779755835
H         4.93983609838059    2.00931857539127   -0.37785025650673
H         5.22975760153717    2.59880954198903    1.26586196584831
H         4.91971811263402    0.88616802901158    0.98787670968184
C         7.59476568043638    1.29017002916144    1.73283681503246
H         8.66539067282169    1.17342435656509    1.58035832543197
H         7.20990429750381    0.38775607098923    2.20520815696808
H         7.42991591985176    2.12842876494445    2.40570357868443
Si        6.07371556995947    5.11278125425057    6.70368302744002
H         6.68462950074287    3.74991671665031    6.57582141077885
S         5.85730966335259    8.65442632916382    6.76297357555000
S         4.50815320779153    2.83636434582408   10.66723487638486
C         7.08863437392708    5.89032657243407    8.13142255622793
C         6.69476182532475    7.06537503662714    8.77408926619865
C         7.46875940702714    7.59785699563447    9.79655915355110
H         7.15249047474085    8.50819136882363   10.28800551261876
C         8.63708325018825    6.97401991871673   10.19474486880882
H         9.22601298131059    7.39181794807839   10.99788913296561
C         9.04855946988687    5.82039839210010    9.55030941294762
H         9.96617530848449    5.33203360056004    9.84435289730622
C         8.27995151169826    5.29556921142201    8.52782632729686
H         8.60705997810800    4.39784478724643    8.02332700659547
C         5.46349499428667    7.79149644751644    8.33634050910811
H         5.18447999397727    8.55838749501717    9.05947641585062
H         4.63112324874514    7.11306709399999    8.15631673678866
C         4.22689724373044    9.27245884260926    6.16983638099273
H         4.52202373059832    9.90866811608945    5.32823671799730
C         3.34952998670388    8.14079582800389    5.66514176973000
H         3.91474836284023    7.50467039391622    4.96794700739322
H         2.48822902040199    8.54358374750853    5.13503053987354
H         2.98682282664854    7.52458045589759    6.48645889370062
C         3.54835060867874   10.11759953305878    7.23384589520573
H         4.23038347802080   10.86941855336634    7.62709869678320
H         3.19369997299927    9.49765011947601    8.05523407727008
H         2.68903190580405   10.62719902366924    6.80165007004219
C         4.25889062577250    4.74242537008507    7.21257201145776
C         3.80709940014133    4.44771395055201    8.50142878523704
C         2.45185428581275    4.23195083034719    8.73245765365742
H         2.12778779238304    4.00732574247758    9.73898367007417
C         1.53526301073226    4.27925812099098    7.70107449389307
H         0.48733112750146    4.10758503137443    7.89927994742919
C         1.97445652406243    4.54075014384516    6.41347564872331
H         1.27245840442592    4.56905455355718    5.59280752217187
C         3.31691379798425    4.77246136019205    6.18503906341387
H         3.66086438219406    4.98077465761184    5.17998929310981
C         4.74081712691936    4.35086177574240    9.66748140976482
H         4.54872820946453    5.15402705041673   10.38302393721677
H         5.78376378862101    4.39607362041393    9.36958590101744
C         5.31255378371435    1.51479525038325    9.67671495156252
H         5.16464044394219    0.64572536556746   10.32548210783408
C         6.79976543957608    1.77333663307251    9.50493614572282
H         7.26052260749924    2.00957449947006   10.46173111593425
H         6.97054048446237    2.59916290527417    8.81806388238216
H         7.28070486912760    0.88652891130416    9.09592225256803
C         4.60565350027632    1.29014304703341    8.35102581981828
H         3.53506458934767    1.17305017947622    8.50352481658950
H         4.99080293202025    0.38789526775935    7.87860728143840
H         4.77021106725633    2.12849791509756    7.67819588056739

