97
CSD_code = IRUPUG | q = 0 | S = 0 | Stoichiometry = C42H42N8NiO4 | MND = 6
Ni        1.22979376409985    9.60213198523917   11.08045139035592
O        -0.22264452856154   11.46219327687667   11.66193509406792
O        -2.12226552278214   10.84329522208913   10.70494515826654
O         2.91266394231991    7.81398025041973   10.43781449477076
O         4.11248078525437    7.63584784557874   12.29325237525884
N         0.02746125851616    9.20851194808362    9.65897534669505
H        -0.84373180125484    9.73343077609612    9.77978685628363
N         1.12339443057954    7.68717758001466    8.35639332501614
H         1.87353616013467    7.70448549410141    9.05791037470048
H         1.29273194248167    7.31347127919031    7.44050181013162
N         0.44293583277487    8.24910912638371   12.17774591246554
H         1.16720396689726    7.65929477098714   12.58082756323336
N        -1.84614229640084    8.52851296962603   12.13916678822878
H        -1.80943214247394    9.40198582990472   11.58590932582793
H        -2.74721811234394    8.18492560219164   12.41823720950492
N         2.49667171350304    9.97317045154574   12.48754470989812
H         3.17431075609207    9.20474385212259   12.58734471034846
N         1.97393499934950   12.09856016518735   13.14972689514167
H         1.09124459680252   11.99029130192228   12.63765681627719
H         2.05881727758362   12.81695908629906   13.84652407252512
N         2.07557552286029   10.96100162273101   10.02285642884797
H         1.50564347981048   11.80074891189324    9.96093032879294
N         4.15723087531084   10.10126395558195    9.68205007121488
H         3.76501586788825    9.19844986302619   10.01701057158239
H         5.14884646048177   10.24425319808430    9.62004254409331
C         0.08749671101665    8.50712684378407    8.58262873125871
C        -1.00873221748275    8.53442784863027    7.58259406652680
C        -1.71904571694006    9.71017088236726    7.35298782656404
H        -1.46689723432288   10.60636634659545    7.89925514103152
C        -2.74131816911604    9.73622021142485    6.42269493608686
H        -3.28366274835246   10.65350437332866    6.24887793919550
C        -3.07258896924525    8.59065937251629    5.71789422937609
H        -3.87334553953400    8.61224350777746    4.99358050478396
C        -2.37784248934629    7.41503825100310    5.94818765777827
H        -2.63974232578885    6.51705990182574    5.40783469426250
C        -1.34917814694359    7.38625789590844    6.87201171842340
H        -0.82493989569622    6.46078276968608    7.06215608679747
C        -0.74800369334748    7.88471747621264   12.52349592352093
C        -0.93531878462198    6.68934063909168   13.39126905857614
C        -1.85346377379770    6.70329357234763   14.43708755771470
H        -2.43070750458455    7.59535095415376   14.63468164816757
C        -2.00536853576850    5.59138305744935   15.24586309749497
H        -2.71351955903937    5.61393942379499   16.06119654823885
C        -1.25173032591529    4.45266031472377   15.01356393893777
H        -1.37525282794836    3.58524516062338   15.64480086365116
C        -0.33847897724869    4.43096843811474   13.97246319144768
H         0.25393013340461    3.54805922259985   13.78393181508373
C        -0.17636125931586    5.54400832996572   13.16847952455726
H         0.53095381948830    5.51714473016787   12.35285546530264
C         2.73795324889659   10.99537898862044   13.22824689728420
C         3.89941964107538   11.02722177614509   14.15405839570288
C         5.09592471664448   10.41147494096941   13.79399161885088
H         5.17241163559840    9.89506994623294   12.84998437408546
C         6.18257535382643   10.44744862549369   14.64785235367340
H         7.10600348398775    9.96861447167024   14.35837278593373
C         6.08863366848799   11.08704286626554   15.87282726136930
H         6.93778194116577   11.11126487013806   16.53981001602541
C         4.89760503342830   11.68660660351854   16.24547445234532
H         4.81344589157549   12.17337537740193   17.20627275401570
C         3.81045085178993   11.66094389104066   15.39093106550354
H         2.87920785450326   12.11035282821314   15.70737313003067
C         3.31960921706354   11.13741502523185    9.72142986509620
C         3.83985615216260   12.48070075618179    9.36509395089935
C         4.73222233036002   12.65050342871450    8.31137149179675
H         5.04167784874196   11.79466446782862    7.72904458401185
C         5.19873149545487   13.91309207496273    7.99228017907515
H         5.88407834010325   14.04002393557504    7.16726475235775
C         4.78903603754815   15.01273598702134    8.72799929825638
H         5.15752693498535   15.99671488990137    8.47899691094221
C         3.90737248875626   14.84855499515815    9.78402747936983
H         3.59139005228658   15.70454456715793   10.36163236728845
C         3.43027061363177   13.59016937300017   10.09998951165800
H         2.75713564929578   13.45290162446629   10.93378125056534
C        -1.33968506488614   11.71094191627569   11.15214937100353
C        -1.76131599829206   13.15840365225753   11.05902245439491
C        -0.84855377000574   14.18122748565114   11.28832158531695
H         0.17138984449104   13.93002466403416   11.54284868887174
C        -1.24270831571508   15.50228495845312   11.18742710457284
H        -0.52892663145786   16.29532977916646   11.36300632999138
C        -2.55315123042969   15.81163699927053   10.86079919996492
H        -2.86117007375488   16.84494031279273   10.78491104068345
C        -3.46756002861020   14.79666719276568   10.62984833018582
H        -4.48942525786192   15.03921066845573   10.37424046726544
C        -3.07220660394393   13.47544925167884   10.72477568516569
H        -3.76707424176070   12.66867888734793   10.54235389513201
C         3.43363742333188    7.14360907262601   11.38233224170798
C         3.19066819812665    5.65132868177162   11.38843411826593
C         2.23549962984641    5.06915376382602   10.56184871071472
H         1.66229467764005    5.69379199483979    9.89244105190676
C         2.01167936656769    3.70468274835921   10.61299495970905
H         1.26412248744089    3.25639094588995    9.97312881917404
C         2.73872364117167    2.91279332002277   11.48676511352559
H         2.56260500106826    1.84677692642654   11.52366498236989
C         3.68930130936232    3.48827840993803   12.31474071706816
H         4.25471883069009    2.87072108773961   12.99832148672396
C         3.91127368105676    4.85166385035732   12.26787008682470
H         4.64090144609843    5.32293122982194   12.91001447498973

