60
CSD_code = IRUXIC | q = 0 | S = 0 | Stoichiometry = C22H30ClN3O2PRh | MND = 4
Rh        4.01665099509068   -0.07151370663010   10.26705959913624
Cl        5.30097199606721   -0.55908111544606   12.09480154006505
P         2.80352562551796    0.32043758572829    8.42565065442346
O         1.18451209545283    0.23870862257251    8.60451419329313
O         6.41442748914022   -0.67952324623255    8.62810063566828
C         5.48835267866091   -0.45024965947271    9.26430285943587
N         2.93257216579305    1.79367554600636    7.61228398184254
N         2.97825820372064   -0.59110865580069    7.01655294546794
C         3.03536218603737    0.19922681333434    5.80333693424615
H         2.06722169971786    0.18821573451628    5.28755618494802
H         3.80183214725769   -0.18918883226795    5.12458738896858
C         3.39655365558008    1.61375158069243    6.24036950260814
H         2.90956611006718    2.35711030172951    5.59700645676900
C         4.89825928929137    1.89438134152875    6.31978660249393
H         5.39991630715086    1.01859189794326    6.73608574127096
H         5.33606786070879    2.13382613436927    5.35289934179691
C         4.95996961384757    3.06074401437929    7.30341904649601
H         4.83638770125279    4.00524171427768    6.77264598291682
H         5.90044092294691    3.09052732918364    7.84849982128241
C         3.76416055252559    2.81774536801196    8.24191120363026
H         4.10005709039520    2.45878133528071    9.22935114216416
H         3.17880282754060    3.73156490594344    8.38266508109185
C         2.96865174316738   -1.97811192766799    6.99814791060183
C         2.92102075012515   -2.69667340061805    5.80235384723220
H         2.87604899688042   -2.18144584143749    4.85593046514121
C         2.92258047414805   -4.07991703224831    5.81324754357620
H         2.88753355023215   -4.61349223302811    4.87451523294791
C         2.96558631581828   -4.77889694058598    7.00569028790992
H         2.96761457417282   -5.85791235013173    7.00821209900762
C         3.00521711152138   -4.07440309878305    8.19822662145803
H         3.04180665046530   -4.60360449267483    9.13885937722821
C         3.00154700240669   -2.69448476706256    8.19724398076948
H         3.04768254443929   -2.15906362776582    9.14765994266230
C         1.07985926397694    0.89606401400944   10.96840650924685
H         1.29303191571463    1.86027359541325   10.48819968038647
C         0.00053585193728    1.07320497732914   12.05229353924469
H        -0.68418802473980    0.22425118108895   12.05300508891392
H        -0.58729600426588    1.96886861028207   11.84622660944562
C         0.69098254539482    1.18825206689195   13.40955284365021
H        -0.02147567066590    1.50009699442454   14.17782061949548
C         1.31593543114850   -0.16739124462801   13.77799812206867
H         2.02052549431117   -0.00556778677240   14.59891721095110
C         2.07628629077098   -0.66004656765216   12.52879774878615
H         3.03284644286290   -1.09723412127389   12.82601186344440
H         1.49705971238975   -1.43103243056003   12.01361813227303
C         2.89350447365900    1.58387233628267   12.35073035864339
H         3.27277882338823    2.33466477217267   11.64595102866432
H         3.73725117061104    1.20603196422964   12.93248175610481
C         1.82777943722554    2.19978990064943   13.27303688494126
H         2.26006234922475    2.42302708627167   14.24871722009376
H         1.43903359196514    3.13332867465164   12.86066999289124
C         0.57508489675703   -0.02215829970359    9.84913558849794
H         0.70700776935128   -1.07711931603610   10.11555551944147
H        -0.49198641331925    0.16384790080019    9.68986194547315
C         0.29902005601763   -1.16818943453395   14.22992321046252
H        -0.44935230460576   -1.45152455061645   13.50052992444018
C         0.27682462261979   -1.70597483130645   15.43493210891556
H         1.01040577938761   -1.45254919348438   16.18228999270917
H        -0.47005861275510   -2.42458567929230   15.72591004931656
N         2.34658218452878    0.44194008368786   11.58255230294997

