65
CSD_code = ISAKOD | q = 0 | S = 0 | Stoichiometry = C28H32O2P2Pt | MND = 4
Pt        4.53403052363499    2.20165900102286    9.35489693017546
C         4.35092474261471    0.23102298875339    9.94817961920371
H         4.82282587158238   -0.42914277634376    9.21138736884954
H         3.30448534370021   -0.08711284841276   10.03551310681296
H         4.82964565368262    0.02783129285646   10.91022133149447
C         6.51704576031327    2.05118286404672    9.89975468233853
H         6.65458623917655    2.56729604292015   10.85952552434038
H         7.15875779948039    2.55988069085406    9.16967593948061
H         6.90295965018726    1.03811586028874   10.02068684523118
P         2.21047952630935    2.33204414113408    8.95158378757892
O         1.45369920670344    2.62436704944796   10.35529056133445
C         2.11366205868689    2.37353499871094   11.58718887595516
H         3.20908863546575    2.39239716365403   11.45479406795560
H         1.82397813013563    1.39736503392803   11.98057998594972
H         1.80875345299013    3.15159456018327   12.28938374399731
C         1.35456508142788    0.84626014576928    8.31327829438588
C         0.05468971326167    0.54558085515194    8.69529846725427
H        -0.44992188791177    1.18390968604451    9.40684147332472
C        -0.57831315569817   -0.56607340886202    8.16994128227182
H        -1.58840248316142   -0.80449665321194    8.47107223360661
C         0.08040811647096   -1.37270537702610    7.25573125434975
H        -0.41679090782139   -2.24017436532309    6.84652260231747
C         1.37676817362803   -1.07204713796128    6.87054556626932
H         1.89084873685269   -1.70559258315074    6.16223499332763
C         2.01455142540672    0.03424700847912    7.40116355765527
H         3.03507172174434    0.26941646198632    7.12841441017641
C         1.32921278540533    3.55352527451979    7.92468632528662
C         0.63884289714576    4.62753605136953    8.46800312442405
H         0.56128505215392    4.72392809688970    9.54051847372125
C         0.04259072163643    5.55938928420127    7.63748448815995
H        -0.49651662471362    6.39336960477327    8.06471889772437
C         0.13493224082666    5.42738735837198    6.26249065358930
H        -0.32833215481016    6.15890282738323    5.61650293149989
C         0.81928705632293    4.35346036167094    5.71619439911671
H         0.88999156687624    4.24353465179917    4.64383460694534
C         1.41598123601469    3.42228302823522    6.54327486941322
H         1.95166921021925    2.58297186070966    6.12026566076106
P         4.85583967369482    4.33069161039911    8.42420816388472
O         3.82922962915981    5.60127138420531    8.54572535613901
C         3.39715789998919    6.03613451956105    9.81857587669549
H         3.17984336397892    5.18596344203737   10.47376529070394
H         2.48647405848292    6.61492915579177    9.66157586744265
H         4.15153358143320    6.66983236952991   10.29289569900408
C         4.64300861297855    4.01166946289927    6.65590330492640
C         4.91133591631119    2.71264493205445    6.23576474326945
H         5.24734305200542    1.98036761845775    6.97316804196038
C         4.74502023933996    2.36414246057740    4.90801288305446
H         4.94921547335549    1.35480577611493    4.58078971427983
C         4.30909940285828    3.31410377427799    3.99737914116779
H         4.17571222778133    3.04416935529487    2.95968301377241
C         4.03912952675470    4.60767080686903    4.41520531901633
H         3.69766198430152    5.34412167661952    3.70192666699677
C         4.20351261081509    4.96052460705274    5.74273556098988
H         3.98441089461990    5.96198310245625    6.08026755720683
C         6.47202856666743    5.20183946006730    8.48702579035752
C         7.23508579892240    5.50219620030147    7.36789260282351
H         6.89397299802096    5.20476982604853    6.38640010612950
C         8.43441997447002    6.17842039506053    7.51190154058739
H         9.02796067185169    6.40882151969716    6.63884161950241
C         8.87610473261589    6.55812413059388    8.76831264175161
H         9.81283513367691    7.08536979947774    8.87492547905173
C         8.12135484803595    6.25326832640986    9.88957190926479
H         8.46928236679496    6.53979771704748   10.87151628032863
C         6.92734636646397    5.57157071989371    9.74803305431854
H         6.34303927859235    5.30394675633584   10.61961583915476

