49
CSD_code = ISALNI | q = 0 | S = 0 | Stoichiometry = C20H24N2NiO2 | MND = 4
C        -0.93339541490485    5.85627669726809    2.88775336410642
C        -0.73746429636448    0.64491744577961    3.20257840835215
C         2.33393561428866    1.81113838254371    0.87415939091308
C         2.97267908274643    0.60238181764518    1.25394423614013
C         4.13254400069492    0.18952616860358    0.65677651080110
C         4.71951580790844    0.93922317128491   -0.36746103624800
C         4.11841098779875    2.10011943113596   -0.77652651999460
C         2.93420406206494    2.56246792491647   -0.17761668435104
C         2.32046572119465    3.74860663488081   -0.66577373570952
C         0.82289722896198    5.50835950942059   -0.96744616154209
C         1.31444406528395    6.80125003228874   -0.31496826010425
C        -0.91958753266684    7.23883735563473    3.20655546221180
C        -0.69716480160209    5.47804270145827   -1.10598950701289
C        -1.74074578457491    7.75768362939865    4.17027715164048
C        -2.63865349536536    6.94100165810255    4.86476797204684
C        -2.68890641161101    5.60326275330230    4.57486095976406
C        -1.85058496783438    5.03209565533077    3.60208970631195
C        -1.96130359243206    3.64429640591894    3.31326973865570
C        -1.64307889004041    1.54305829227356    2.35877708817151
C        -1.63365971765588    1.14611251691677    0.88458423133792
H        -0.22535438707938    7.86979409157967    2.67168042973005
H        -0.80859565932334    0.91994360707422    4.25320061541196
H         0.29118273709109    0.76056309063510    2.87848408072225
H        -1.03809508472137   -0.39361794263710    3.08951781448867
H         2.52079446895210    0.02404115141114    2.04613427642848
H         4.60058293910921   -0.72968844651140    0.97910009516756
H         5.63458894889322    0.60102026517953   -0.82888653001711
H         4.55823769854673    2.68859057029477   -1.57044266261505
H         2.79406211710653    4.15838649235327   -1.56441978351325
H         1.25776307861235    5.44807351930819   -1.97919219771603
H         2.40216057695853    6.81424577273033   -0.28024566557082
H        -1.69720763163678    8.81358832626871    4.39636414474890
H         0.93032200777146    6.86439206293892    0.69746782067666
H         0.97020045755233    7.65912785237041   -0.88718608328195
H        -1.00832272253424    4.56814064800785   -1.61648778986653
H        -1.03582604892315    6.33690223202332   -1.68047029205511
H        -1.16153092762918    5.50402751743887   -0.12298718927539
H        -3.28313792738650    7.36529411525961    5.61910346360223
H        -3.37794471355041    4.95895729865773    5.10385602469689
H        -2.78213874702845    3.14476312137502    3.83911631437958
H        -2.67522075120621    1.43616853303339    2.73265447980244
H        -2.31858967969490    1.77860141027924    0.32267902048375
H        -1.94330075699967    0.10962278014927    0.77668023650244
H        -0.63384073812865    1.26159755975753    0.47375357460823
Ni        0.32197145242171    3.72743055177195    1.47813609314753
N        -1.24459523682843    2.94133945473805    2.50474550776024
N         1.27988536236832    4.35085338477231   -0.20160135689009
O        -0.14991197328477    5.42008419059807    1.96998421771950
O         1.24970947469535    2.15569860504914    1.46804902524167

