88
CSD_code = ISANAR | q = 0 | S = 0 | Stoichiometry = C41H44O2Ti | MND = 6
Ti        1.78883208501524    5.78665171323067   14.01919773832734
O         0.89587156997684    4.49454185366777   13.32191842179656
C         3.76823310212260    5.01758435728825   13.61046369340013
H         3.78504778734626    4.94824610594855   12.51337560181554
C         3.86678764952430    3.73437457784230   14.31239809009088
H         3.30723088401609    2.85634866109405   14.03994765251721
O         1.68937252824049    7.00432732544375   12.79952354141381
C         4.80537649126294    3.77353588361821   15.28978974674993
H         5.06152968234080    2.97852120339676   15.96883019453248
C         5.43989628025276    5.05950074074256   15.26437613375540
C         6.47036455096493    5.58816767134277   16.03239135315675
H         6.90945903512651    5.00870642202516   16.83265349899009
C         6.92894318964545    6.85907946055754   15.74648819496236
H         7.73294090958466    7.28628755272947   16.32888593591035
C         6.37276947020026    7.59245467950755   14.70311370451721
H         6.76075771027155    8.57758422166705   14.48381505352005
C         5.33480235658853    7.08364257608624   13.94110641735702
H         4.92376032221536    7.66862217866928   13.13533979034175
C         4.84202906420828    5.81690048366760   14.22278210710343
C         0.30403315728418    5.92420498859874   15.87902214579603
H        -0.73430235290365    5.61389845979510   15.92523330976020
C         1.40449545895026    5.14241143427736   16.28092137050736
H         1.34571292061125    4.12212536024666   16.64555698695496
C         2.57007153396511    5.92782100029327   16.25632728398714
H         3.52805428603093    5.64056922946733   16.66337626785771
C         2.20029706430000    7.25197858216912   15.88563412503646
C         2.92380636638632    8.45690304730403   15.81266701702399
H         3.98622209400980    8.46188611193442   16.01720881757670
C         2.25322780314400    9.61659939871190   15.51232696628048
H         2.79276563139007   10.55085707943167   15.46022973382856
C         0.86619954313761    9.62150517694092   15.28513194481146
H         0.37696276834987   10.55884249023491   15.06331302135986
C         0.12445158723866    8.46907534322859   15.35831859028050
H        -0.94940551034497    8.49609389918736   15.21774722840071
C         0.77430532966842    7.25698594946124   15.66086215211795
C         0.97164477907606    7.49784266165158   11.77933563154425
C         1.52806713618545    8.32473111749403   10.77216170583540
C         0.71264142209221    8.75526641770897    9.73565994062283
H         1.13021798646400    9.36989623079425    8.95611084170280
C        -0.63250031573917    8.43711418560260    9.64728295243327
C        -1.17967346992944    7.67408440783468   10.66301323534929
H        -2.23255769352158    7.43242062700854   10.64082427761336
C        -0.40870999769309    7.21301897163010   11.71491550456529
C         2.99391440546999    8.73645596533022   10.81067719319265
C         3.39485216010885    9.69661142574637    9.68415489371855
H         2.81383448733624   10.61503262696237    9.72024458917049
H         3.28037816436045    9.23584047876256    8.70589918587753
H         4.44405324332473    9.95923392533788    9.80576733807592
C         3.84510864067625    7.46931503324908   10.66089155695209
H         4.90523832304346    7.70286587260955   10.73805428862275
H         3.66282626448889    7.02003481404896    9.68545514293856
H         3.58116955826696    6.74337928239312   11.42759170450728
C         3.25863390562631    9.45980567533866   12.13796804864007
H         2.65124251181733   10.36222710487876   12.18691363153917
H         4.30514872192227    9.74950399556315   12.21330127307362
H         3.00104438023258    8.83381971641591   12.99050584384589
C        -1.47402734446795    8.90454398246686    8.49854187079353
H        -0.93427658941676    9.62274590238856    7.88680956644994
H        -2.39022516043093    9.36965810817740    8.85832079347716
H        -1.75453689027462    8.05942100891333    7.86996241162427
C        -1.08948272414550    6.41531175490836   12.79875704518619
H        -2.08332126145527    6.83531801506767   12.97172117569264
H        -0.50176318881676    6.48779018953192   13.71613363301365
C        -0.18880654241572    4.05785799718145   12.66843821245943
C        -0.34857143180779    2.71209485662886   12.26245044526783
C        -1.52470544198298    2.34466886734892   11.62489101543709
H        -1.65899497490535    1.32287996062700   11.31145849321493
C        -2.55418460118999    3.23581787762776   11.37021051324985
C        -2.38584525488944    4.55159999810981   11.76791929330154
H        -3.17476784776719    5.26723076782437   11.58501158902862
C        -1.23089777183109    4.96963308161968   12.40236712779386
C         0.75487400213727    1.69264996511462   12.50858499040342
C         2.01069361639766    2.16530890067793   11.76028745077688
H         2.24651298271076    3.20163300214225   11.99959076648594
H         1.83619385937763    2.09981147426020   10.68730870411190
H         2.86518045633653    1.53765186351804   12.00615795502397
C         0.97951046078835    1.57728528465948   14.02382873670395
H         1.16245892677372    2.55288160922111   14.47230810632113
H         1.82309923777553    0.92276751175878   14.23658448942646
H         0.09168569501315    1.15129695373116   14.48908133445539
C         0.42098221950200    0.28773730109241   11.99320419646035
H        -0.45451308989791   -0.12175625765851   12.49157182454992
H         1.26231589880800   -0.37076702393441   12.20066939476660
H         0.25476511970723    0.28762162398716   10.91868511949824
C        -3.81478373193217    2.80088064776181   10.68590469436782
H        -3.79589816938136    1.73498903346169   10.47444077485956
H        -3.94103761729059    3.33836164854094    9.74670412100337
H        -4.68080980475773    3.01613833708792   11.31059154313366

