69
CSD_code = ISANIZ | q = 0 | S = 0 | Stoichiometry = C30H36O2Ti | MND = 12
Ti        3.84371019416255    9.89654988966084   11.81908945030669
O         3.67520671268410   11.13999424169269   12.99685252901379
O         4.70828242099750    8.63105184054478   12.58725724805829
C         3.03705521935357   11.42043907975643   14.12325467540542
C         2.47499110071229   12.68559950527080   14.33722928313614
H         2.57426973652292   13.43921425637385   13.56844678082237
C         1.80585339063313   12.96057038701674   15.51397779415309
H         1.37546709169859   13.93996807909681   15.66354728937029
C         1.68295481523115   11.99329702646054   16.49779174060051
H         1.15840934862729   12.21470154976838   17.41459787610389
C         2.24178614008037   10.74037340159146   16.29904267774852
H         2.15394618288486    9.98258692764152   17.06413180886988
C         2.91481177795638   10.45027340916531   15.12873395875486
H         3.36636067798806    9.47738280227494   14.96576980698928
C         5.72764926091701    8.35842893208209   13.38916556449663
C         6.34675335681876    7.10326558777422   13.35276165005764
H         5.98814251485313    6.36247157241646   12.65167101798181
C         7.41031785432401    6.82634966962309   14.18962943936822
H         7.88365755048299    5.85626825101372   14.14463791452344
C         7.87170936208832    7.78119413278316   15.08017628413800
H         8.70351957027793    7.55879224056145   15.73119137729773
C         7.26135939763873    9.02514858134502   15.12752411658225
H         7.61833212007108    9.77481626400214   15.81894530636612
C         6.20058306664115    9.31817591151005   14.29412858129749
H         5.72304117322075   10.29046450224363   14.31052455301682
C         2.04345117399736    8.39829936060526   11.51261169865809
C         1.50247265427899    9.63081105395954   11.96805505162945
H         0.90784481305934    9.77526194059817   12.86212540086061
C         1.71952708820428   10.61056545614972   10.97764020212334
H         1.33708638512249   11.62462744517769   10.99768421557231
C         2.41161561875860   10.00398807319889    9.91526788406317
H         2.61047100167202   10.45147800052752    8.94855040198939
C         2.61222509532594    8.64371092263896   10.24313907532894
H         2.99739207546318    7.89494199427584    9.56418432770175
C         1.81919717044569    7.04285703613333   12.14980389695205
C         2.03122234044051    7.10373120113194   13.66747133587321
H         3.06536466535977    7.37009952651960   13.88856063542957
H         1.82523026210077    6.13160961962981   14.11285956663956
H         1.36960879754894    7.83386216526280   14.12938909577290
C         0.36995553168256    6.61954941493310   11.85763388199804
H        -0.33015750350145    7.32179746047354   12.30423214694157
H         0.17524127679407    5.62903828242312   12.26371015855882
H         0.19106757380093    6.59647730460447   10.78481230191707
C         2.78019945273745    6.00377931048142   11.56117775905310
H         2.54320366851082    5.79923519446860   10.51949181169975
H         2.70430481600509    5.06862638670416   12.11285647776274
H         3.80592866886099    6.36683350112389   11.62522067335248
C         6.23743042339660   11.40566197119297   11.37411756734118
C         5.25242745864808   10.83348668659125   10.48223178859568
H         4.71359706300920   11.45815053757061    9.77123070604018
C         5.77177352574475    9.53199969447129   10.09708154253353
H         5.36338261580497    8.89949130758742    9.31747832911310
C         6.93888312847114    9.31538737343584   10.78879271549025
H         7.55359663528603    8.43073302002982   10.74751121683887
C         7.21784417564350   10.45580756473188   11.57898257920348
H         8.08227548718124   10.55314387887003   12.21431555567456
C         6.29793552714809   12.85163076149439   11.82002843449766
C         5.05352204493108   13.62825341561076   11.37453556117409
H         5.03039385057235   13.73354920293102   10.29146718870516
H         5.06469625591740   14.62693874236421   11.80864210765315
H         4.14781273453800   13.11354243169610   11.69909666448925
C         6.43094129995850   12.95378218486107   13.34498096665426
H         5.52806598991897   12.58476321183806   13.82785337962648
H         6.58021240262902   13.99040171617195   13.64400636468867
H         7.27838196346491   12.36944877769207   13.69413807270713
C         7.53492854922334   13.49461233957915   11.17070971118290
H         8.44239384362626   13.01031807624283   11.52016623881416
H         7.58759858063396   14.55355642585159   11.41761136546428
H         7.49078378070531   13.39078198649978   10.08886521918007

