58
CSD_code = ISAPIB | q = 0 | S = 0 | Stoichiometry = C27H28O2Ti | MND = 12
Ti        1.97057506625783   -1.89194307401657    8.83356683069827
O         0.46647591924719   -2.67714248120696    9.22396919273651
O         1.58372088591277   -0.20923047472349    9.04638593789071
C         3.38512814009295   -2.66837425508549    7.19078806623781
C         2.16817788211138   -3.38193914950435    7.04368379125341
H         2.02813225306407   -4.45023781401219    7.15033965839030
C         1.20003628735579   -2.49610438679050    6.52627183882466
H         0.20185633456536   -2.76692153906377    6.20707932370805
C         1.79522371295749   -1.23220508618968    6.38178298836106
H         1.33518451721822   -0.35948230448924    5.93798259462616
C         3.13079480893095   -1.32702504744264    6.81837954730802
H         3.85907724915668   -0.52967258951903    6.74652986657615
C         4.02870611328642   -2.77431089641730    9.37307946599783
C         3.11512809440489   -3.55246629976724   10.12297265857358
H         2.94338694515449   -4.61650953883344   10.02465364333395
C         2.58831892241773   -2.74988250575772   11.15368199520871
H         1.94352942937751   -3.08972947657004   11.95300981355491
C         3.13014158753283   -1.46126967949648   11.02091630535548
H         2.97844685631937   -0.63644631729313   11.70531745094288
C         4.00235820346729   -1.46256407763667    9.91242599986447
H         4.64914425379500   -0.63849854781881    9.63850355562395
C         4.57795193508746   -3.14151311005239    8.00455501432078
C         4.84211565014139   -4.64256849221552    7.85278156989900
H         5.15621281504806   -4.86043320211335    6.83367617758224
H         3.95868926228920   -5.23598611925490    8.06960568844138
H         5.63415682655298   -4.94926580865591    8.53342688663937
C         5.86819738574357   -2.39118801537776    7.66052430708249
H         5.75594138029308   -1.31632985541389    7.76753298414379
H         6.15565453044877   -2.60327326111568    6.63238845056783
H         6.67094404503821   -2.71641247077070    8.31966748611848
C        -0.38230588613523   -2.72639122164561   10.24155240689034
C        -1.18635686677841   -3.87009552594726   10.42013632392904
C        -2.07342651967048   -3.90796074688157   11.48119286109524
H        -2.68876928785642   -4.78582545723138   11.62032402413127
C        -2.18396599748798   -2.84443939169489   12.36290035875909
H        -2.88376849955529   -2.89487534869869   13.18325590621142
C        -1.39536454665918   -1.71980289701036   12.18651958450095
H        -1.47811151270549   -0.88783114185043   12.87039878447879
C        -0.49839451157643   -1.65614077015321   11.13677757172463
H         0.12551128924557   -0.78076902100246   10.98070287835681
C        -1.03495757673337   -5.00860293944687    9.45664734259574
H        -1.77173458461128   -5.78433312752187    9.64814601365823
H        -0.03571052596383   -5.43908618994004    9.54409010175421
H        -1.14754018182185   -4.64919411782378    8.43317147881771
C         0.70532172186156    0.66868874945554    8.58115411729541
C         1.03579815528140    2.03813966560823    8.55034407799140
C         0.10479805084430    2.94232358423593    8.06906037006602
H         0.35928632717859    3.99253022938321    8.04283119697968
C        -1.13849970589314    2.52484248839631    7.62258466170530
H        -1.84882157354728    3.24771504777305    7.25081729480963
C        -1.46488838638871    1.17908500515942    7.65620034385324
H        -2.43336924278867    0.84806369591164    7.31089481609566
C        -0.55411881201099    0.25405813436124    8.13004212664552
H        -0.79384253052260   -0.80463526051300    8.16858930878010
C         2.39514632768588    2.46468462869915    9.01848457937135
H         2.68611056483827    1.88416540885991    9.89474724707313
H         2.40994160132369    3.52423194630948    9.26277244222775
H         3.13442541721086    2.27838044980902    8.23658269030001

