81
CSD_code = ISAPOH | q = 0 | S = 0 | Stoichiometry = C34H44O2Ti | MND = 12
Ti        9.99155585807446    7.31032279496094   16.51842344298491
O        10.60825789895947    8.14244191120210   17.86842022110848
O         8.29041592716532    7.23041140062977   16.80160770960261
C        11.17510598135869    6.07073958276020   14.78104162602235
H        11.62148152843867    6.44475303810612   13.86852012504233
C        11.82640187936536    5.93536283426327   16.02111743047809
H        12.87055680436397    6.14531623676492   16.21016021877902
C        10.95398939630308    5.24417660475323   16.89592237537678
H        11.21768814670044    4.86093544611035   17.87553325862520
C         9.78058272317175    4.93200217367134   16.16951524433731
H         8.96231725623539    4.31026644445907   16.50531434059032
C         9.90859267461333    5.46369424381220   14.87973877869742
H         9.20700570731674    5.32327506115132   14.06739780052070
C        10.07192129859434    8.81886625901854   14.99706674972846
H         9.69428645707852    8.36634394742461   14.07539046596908
C        11.46216010105399    9.22261468669518   15.09009021389703
H        12.29234383854214    8.72292138884034   14.60911903965697
C        11.53580953451525   10.39259614967681   15.79396763634028
H        12.43110688697796   10.93265371035396   16.05027203158526
C        10.22024956280564   10.80471636631258   16.13312004401658
H         9.99132807601616   11.70448071951305   16.67795449050466
C         9.33184584252313    9.88914497385650   15.63850769145302
H         8.25288945824641    9.95920336093598   15.65737193270949
C        11.00314801084113    9.20962751384785   18.56186414064421
C        12.38516309245956    9.47913938316198   18.68430550246346
C        12.79990917405802   10.61837884535677   19.34958564071325
H        13.85241750087561   10.83300234119827   19.44390922526171
C        11.88076083286220   11.49589083372149   19.89656715035960
H        12.21850044451391   12.38909436902037   20.40070869326923
C        10.53274962520386   11.21045104027829   19.81599616552164
H         9.82326079091431   11.88466780121962   20.27160396556879
C        10.07089498869725   10.07345983570406   19.16890231628273
C        13.35220421602294    8.47204828049158   18.10903578657518
H        12.93339537634243    8.15774248447090   17.14289152372939
C        13.40726743228420    7.25358991432381   19.03997739027727
H        12.40905297903309    6.83414171578240   19.17034194275651
H        13.78918755631729    7.54734343004845   20.01630347025866
H        14.06088880944369    6.48477128203079   18.63132617404116
C        14.75635968222270    9.01652747381379   17.86418580841380
H        14.71738255169867    9.92722757942421   17.27180703785742
H        15.34545087810934    8.28013004934136   17.32050116148219
H        15.26713960392836    9.22529953476226   18.80151578917258
C         8.60071246529331    9.72511728217275   19.21051995224506
H         8.43432731633202    8.85367845872793   18.55919705912602
C         8.24283860022086    9.36315347273780   20.65694858276259
H         8.83254170541064    8.51466325962814   20.99547923258631
H         7.18741311532612    9.11700430542093   20.74155482601916
H         8.44868624060341   10.20410658278827   21.31592818146177
C         7.69784355071387   10.86133986605624   18.72763212499235
H         7.97518910189813   11.17042254690101   17.72520627690877
H         7.76379773836710   11.72259131597507   19.38824698540559
H         6.66241412780803   10.52558281310993   18.71314838529694
C         7.23955316459380    6.41159214460474   16.82848728772844
C         7.02235314520534    5.55184545626090   17.92629483668123
C         5.94542455088676    4.67857672572259   17.89382240453307
H         5.77901424430599    4.01246687290931   18.72714259630135
C         5.07638356595773    4.64585120801548   16.82039833538335
H         4.24498463061055    3.95714216086177   16.81519893185264
C         5.26838202337133    5.51362961428304   15.76137247614498
H         4.57418959297629    5.50261993271670   14.93546844328277
C         6.33781498825283    6.39278875782509   15.74346248683266
C         7.90568073072266    5.62058182182361   19.15405397001375
H         8.72524352246282    6.33442203210544   18.95436215736062
C         8.51801319155237    4.26719368906934   19.52668991755676
H         9.08761421960774    3.84489500507264   18.70355859358969
H         7.74271264693124    3.55596589296633   19.80263609483764
H         9.18350882137478    4.38776969213384   20.37974976422327
C         7.06844425135416    6.13447643462079   20.33004092411483
H         6.57037887546012    7.06200286005978   20.06263998598900
H         7.69493463800062    6.30791914967177   21.20179164642017
H         6.30623284632012    5.40541034903176   20.59664113554537
C         6.53105246224231    7.38062209314612   14.61641851707432
H         7.58287117959338    7.69735079971084   14.63522288758241
C         6.23202351431707    6.79089356930370   13.23853691436188
H         6.75008221090349    5.84361439010179   13.10321846725569
H         6.56085544643352    7.47977884885120   12.46285971063428
H         5.16637497506551    6.62228452135166   13.10436522526140
C         5.65772077347744    8.61263031946184   14.87760346721081
H         5.81926502250360    9.36481029426259   14.10803654285898
H         5.90032859990942    9.04514281788741   15.84661915742730
H         4.60507181935251    8.33598959935125   14.87944376246358

