43
CSD_code = ISAQAU | q = 0 | S = 0 | Stoichiometry = C22H18O2Ti | MND = 12
Ti        2.34993320703144    7.78301800444597    2.01670323844443
O         2.79511218948289    7.33432205806929    3.65310364312472
O         0.96374780254590    6.72017216440109    1.86440178134667
C         3.16952218752084    6.66353768011771    0.10606487420325
C         3.77430675432352    7.93458750117944    0.11442463002956
C         4.65242190805710    7.99446103823988    1.22001148955817
C         4.62429646227397    6.74645357006029    1.86240190536478
C         3.69450217929001    5.92830479678944    1.19543053571125
C         2.17256927066388    9.96735181506086    2.89656615041430
C         2.49179711676243   10.11635161397911    1.53426636610420
C         1.38961131853081    9.66370841000965    0.77423506808689
C         0.37875507554938    9.27542637100203    1.66657892154212
C         0.86293070572722    9.43734396414408    2.97847482205692
C         1.98971922417096    7.14079835764774    4.68930713210747
C         1.04155192663334    6.09313124202941    4.70955826300626
C         0.22244124884996    5.96244098464729    5.82918471697376
C         0.33250814350181    6.80825728786068    6.91687086682896
C         1.29720544462213    7.80278144156873    6.91559789245727
C         2.11692202493227    7.96263474868095    5.81726491359769
C         0.85724322990959    5.45843172531131    2.25951000717759
C         0.92322425731937    5.09874386519633    3.62439865017937
C         0.81549626842110    3.75066739829806    3.96004395996191
C         0.62299342303315    2.77323972032019    3.00184081156178
C         0.50893153346536    3.13409970369500    1.66893708179348
C         0.62078753937933    4.46026323395901    1.30477531204477
H         0.89900667414288    3.46931846505983    4.99990038840862
H         1.40862473319893    8.45588759794992    7.76848111016751
H        -0.61777542829869    8.94984592689572    1.39808805029575
H        -0.32281795268934    6.68543343618083    7.76569875215776
H         2.88104316883796    8.72849099811401    5.80068401288804
H         5.34626019485280    8.79679395636137    1.43748261728820
H         2.76528327619038   10.32776009299514    3.72839606795364
H         0.52927304189900    4.76295357485339    0.26997086555462
H        -0.52583196333342    5.18301101634262    5.83302015924843
H         0.28896633982795    9.29419709246972    3.88528275321818
H         1.27923921817753    9.75119748029314   -0.29925305281869
H         0.33678458321701    2.38216957805805    0.91305774661790
H         0.55146890887476    1.73659030163833    3.29390082785830
H         2.53107736458957    6.27160191905597   -0.67649397617548
H         5.23960402735905    6.44755325964370    2.70088287280572
H         3.69924955138229    8.67087685167869   -0.67485250738217
H         3.36095727391713   10.63074063856412    1.14583928366590
H         3.50555654585720    4.88414911713237    1.40956099456945

