39
CSD_code = ISAQUO | q = 0 | S = 0 | Stoichiometry = C20H16Cl2Ti | MND = 12
Ti        6.08246446462283    2.53738908148079    2.48771289165102
Cl        4.59858529604790    1.01367595536561    1.89209501225211
C         6.77052018933848    4.43170007843967    1.36611819581786
C         7.92109412489246    3.58734476671777    1.28595154780724
C         9.22930116080030    3.69956264211923    1.79509136186386
C        10.14566941208060    2.72877958913917    1.48114935508940
C         9.80835452951211    1.63588812040324    0.66225545772208
C         8.54508835625797    1.49086195095224    0.14741286717293
C         7.57660217325768    2.45983596770178    0.45475438231367
C         6.21334792028257    2.60557941062357    0.07581188237398
C         5.73955268340289    3.82047429419456    0.60562344176052
C         6.68404404531371    5.78713081556283    2.00839887632916
H         5.67981391280834    1.96410165420639   -0.61348065236617
H         9.51182642239066    4.54718177770096    2.40672087586736
H         4.77819763341979    4.26602602530770    0.37246283644545
H        11.15355119327206    2.80063035832176    1.86218201538866
H         7.60445292912249    5.99065086638339    2.56025678062638
H         6.57100032803003    6.56671531929755    1.24829079581670
H         8.28806951480224    0.64981874811869   -0.48177408460830
H        10.56789405623331    0.90226588087251    0.43748569382643
Cl        7.56599405515223    1.01309201096040    3.08327940786102
C         5.39409175183202    4.43168465946271    3.60916420455411
C         4.24353953942683    3.58728365089982    3.68925953565321
C         2.93533009936824    3.69949619796445    3.18011413563277
C         2.01892656868099    2.72877625606490    3.49415631734976
C         2.35624763184059    1.63587106540853    4.31302716833570
C         3.61955354884208    1.49076698946806    4.82774482484375
C         4.58802180874205    2.45977162949354    4.52045041917926
C         5.95121622042334    2.60563611826719    4.89956212272700
C         6.42503250023192    3.82051609665577    4.36973454755322
C         5.48055269188260    5.78711470652132    2.96687930883644
H         6.48475408466386    1.96414156118323    5.58883101095926
H         2.65277487414519    4.54717138880428    2.56857417744343
H         7.38640789533716    4.26604138004594    4.60284377588212
H         1.01101368055814    2.80068755619521    3.11321945130711
H         4.56014487206061    5.99060665879771    2.41500817212819
H         5.59355562004713    6.56671286472930    3.72697890805293
H         3.87653868174050    0.64979354647637    5.45704057248143
H         1.59667352913548    0.90232235969183    4.53791240606913

