59
CSD_code = ISAQEY | q = 0 | S = 0 | Stoichiometry = C32H24O2Ti | MND = 12
Ti        7.08973950846920    3.75909297531444   10.09493002025360
O         6.93540776879063    2.64510140670678    8.75416179878966
O         5.54841536087559    3.51030665081696   10.83609573461569
C         7.98910274456739    6.01341621017864   10.04412088400666
C         6.58224076652219    6.01182261960813   10.05292178889418
H         5.95962394384994    6.44835494740329   10.82792480976393
C         6.10427220648303    5.45200456642592    8.83952255345933
H         5.07198517030018    5.44280000411873    8.50786793698633
C         7.23761095797099    5.19131462540412    8.01406735756209
C         7.35674464557462    4.71468788773629    6.69962719546337
H         6.46944941043505    4.47990183491803    6.12637676510423
C         8.60989253945739    4.57188487850908    6.15661445637951
H         8.72071393535431    4.21572985024562    5.14273910381169
C         9.76238245900826    4.89624261119152    6.89015881934602
H        10.72951503164751    4.78449019012514    6.42144656437115
C         9.68036637539749    5.36167673679653    8.17945306726807
H        10.57988623626190    5.63745846631657    8.71627116499143
C         8.41546858011979    5.50924530034157    8.77586256644468
C         8.86755192062109    6.49690208657711   11.16297690612967
H         9.91139869203387    6.47020346740752   10.84267778412015
H         8.62745350572319    7.53372344112677   11.41902631640725
C         8.46638895416844    4.17258201025267   11.96669936833283
C         9.22014117565188    3.49983283339751   10.97297818310729
H        10.10849841612110    3.88468887804275   10.48608657620735
C         8.74529800737735    2.18039005864362   10.83899658136855
H         9.20762757231823    1.40085319914005   10.24762164873939
C         7.72307307186168    1.98451471585922   11.81112887623722
C         6.92968727972785    0.87441431871204   12.14279985922495
H         7.05106827590955   -0.05928888078433   11.60852327967845
C         6.01106400721566    0.99622588222741   13.15481654920405
H         5.39209757818207    0.15242956588290   13.42326881526036
C         5.85987117791921    2.20110423758638   13.86332961566532
H         5.13063388330405    2.24782577942478   14.65948523256427
C         6.61594076553296    3.30656697687662   13.56647744970932
H         6.49175457227178    4.22490892424033   14.12662990100054
C         7.56051655330310    3.22724726930408   12.52766479483828
C         8.67621912408280    5.59706978274602   12.40243165165915
H         9.54838866965557    5.67984471962135   13.06143101877166
H         7.80190895113927    5.93023778620722   12.96928993188307
C         6.49993617321069    1.39457973071682    8.82549786451208
C         7.35301505396025    0.35238094859667    8.43843051159779
H         8.33150122500580    0.61801943494493    8.05914945313247
C         6.95907144337786   -0.96652132800191    8.53044966429799
H         7.63978307597033   -1.75272811747312    8.23861898268206
C         5.69332500032958   -1.27618442378969    9.00241850257291
H         5.38430849894633   -2.30600807487069    9.09838584999638
C         4.81872163392934   -0.25743030735456    9.32930578433329
H         3.82621931376726   -0.49861072004568    9.68156289587202
C         5.18305265981334    1.08447547506467    9.23441071262983
C         4.15360889132966    2.11321107594120    9.48326287228475
C         4.37138671209312    3.25319030113099   10.28815829065418
C         3.30399934759001    4.12487254358177   10.54192768704371
H         3.49003357359352    4.97193349600820   11.18948966157117
C         2.05952901079427    3.91308641157068    9.98563856456261
H         1.25439485017224    4.60345359237066   10.18920509087781
C         1.85160179465699    2.81641757400395    9.16462978395827
H         0.88485802230638    2.64798073600401    8.71508163805593
C         2.88691056020589    1.93115154545131    8.93029506013159
H         2.72254336374288    1.07772129150109    8.28837820161232

