61
CSD_code = ISEFIV | q = 0 | S = 0 | Stoichiometry = C26H28MoN2O4 | MND = 6
Mo        3.57486269733721   12.97814482577781    4.40730290715160
O         2.27197819927135   13.92871749263051    4.77465794158461
O         3.05344018342697   12.43264872796377    2.67414404614174
N         2.21476835847147   10.93985986281926    4.83467187363104
C         1.99663772492938    9.97393694037066    3.94753664436582
H         2.62227421191990    9.98714968411279    3.06270737392432
C         1.02328130488319    9.00089567498383    4.11398702535028
H         0.88768511728320    8.23584912467762    3.36533039273196
C         0.22868748137969    9.03948897370561    5.24906824123240
H        -0.54383708369359    8.30189743550118    5.40835795330266
C         0.45035139560721   10.04944015325266    6.17089142254983
H        -0.14413664258023   10.12430098049674    7.06767392873891
C         1.45527143533231   10.97284048332425    5.92227541111144
H         1.66757067932730   11.77435018650456    6.61518693556731
C         2.42664919066683   13.24473871248146    1.79615750076072
C         1.02099448799386   13.28479769688884    1.73900476848437
C         0.39467632986159   14.07871504650099    0.79127100825729
H        -0.68574797906169   14.10456442290778    0.76156725801548
C         1.12498483777479   14.83912846246280   -0.10262981163906
H         0.62287401497819   15.45451330076709   -0.83404456580412
C         2.50482722919017   14.81098555270588   -0.04010039020223
H         3.08581574230034   15.41261253270562   -0.72506431699747
C         3.16914154716727   14.02676357071124    0.89168642866866
C         0.20417728380415   12.50174065891593    2.72452612757309
H        -0.85523438946040   12.70964638556588    2.59237219613971
H         0.50024921110275   12.78820125214346    3.73563106395470
H         0.36831543322191   11.42967694328659    2.60202296664031
C         4.66941408783086   14.02049596874488    0.93188279174894
H         5.00857776804271   14.14347043187082    1.96422336839572
H         5.06722930868452   14.83423974022999    0.32982716948061
H         5.05974361141616   13.08176007117766    0.53223167692640
O         4.87767935462474   13.92881272535232    4.03995081641881
O         4.09627039983209   12.43267276909581    6.14047557521047
C         4.72303692529010   13.24476113739829    7.01848030731914
C         6.12869113643956   13.28482437607704    7.07566468644835
C         6.75498663820674   14.07873909861247    8.02341542258801
H         7.83541048731074   14.10459315556013    8.05314360613505
C         6.02465643137712   14.83914877334227    8.91730177679054
H         6.52674860312686   15.45453282543198    9.64873003135831
C         4.64481613460674   14.81100040278719    8.85474339742252
H         4.06381014155227   15.41262987656750    9.53969065729099
C         3.98052396083466   14.02678093937139    7.92293861208775
C         2.48025289998145   14.02050529450598    7.88271451509667
H         2.14110912290666   14.14347698901653    6.85036687628965
H         2.08242397711680   14.83424998800210    8.48475917222139
H         2.08991952905873   13.08176813022681    8.28236112758533
C         6.94553500525146   12.50178001393348    6.09015458761820
H         8.00494157733977   12.70971643660667    6.22230761702214
H         6.64945656875057   12.78821326506513    5.07904477698807
H         6.78142668006911   11.42971407156603    6.21267060176572
N         4.93495958929477   10.93989696954590    3.97995164325184
C         5.15307471239476    9.97396629061835    4.86708062615329
H         4.52754844027449    9.98727172194888    5.75199593849522
C         6.12638576870336    9.00088948897464    4.70059765315150
H         6.26203267037352    8.23587971320433    5.44928025475970
C         6.92092028987155    9.03942607383839    3.56547744021829
H         7.69337511106972    8.30176701874731    3.40615715891002
C         6.69925014111323   10.04937044106836    2.64364432277940
H         7.29362276304745   10.12414250296499    1.74678118260955
C         5.69439506523675   10.97282542673863    2.89230840652462
H         5.48201709653175   11.77427278764722    2.19935387170877

