31
CSD_code = ISEJEW | q = 0 | S = 0 | Stoichiometry = C11H12Cl2N4OZn | MND = 4
Zn        4.87469996912619   10.32636548534460    8.87948684623024
Cl        6.51731798325398    8.98856783732393    8.43789364033421
Cl        2.89464483795313   10.43757350546800    7.83970313327000
O         4.38530796794341   14.65395199306216    5.53990962525054
N         2.86470879436547   13.07381224249992    6.06941033938525
H         2.12998325588139   13.76015535763030    6.13358590411125
H         2.68811050746566   12.14443752802490    6.43935800587349
N         5.92059979371071   13.20633883374991    7.88972314271211
N         5.50561959699778   12.31582531709037    8.77040512558325
N         4.47063392966389   10.93035462985578   10.86866963215564
C         4.09978031842057   13.49336023074282    5.76485760889853
C         5.15337786150477   12.38515128612928    5.73076862806828
H         5.47811247440553   12.24258430816786    4.69989715848990
H         4.73763240134825   11.44909604237239    6.10187995760066
C         6.35800840648511   12.81175755967589    6.57565476893756
H         7.06368780597963   11.98275797075830    6.67444134360971
H         6.84552269043342   13.67358158353622    6.11653998773125
C         5.78881562645593   14.45256218016045    8.36477579758169
H         6.04608765782826   15.31057322724662    7.77753657894856
C         5.26879225094284   14.35877563978062    9.63746481899753
H         5.03943772599720   15.16654480432622   10.30017479178814
C         5.10114122269319   12.98200388074193    9.85513385467984
C         4.58995169422277   12.25677745708991   11.00255993686758
C         4.23940260569612   12.89910360846676   12.19048202922876
H         4.34578751826482   13.96817821386027   12.27455281271361
C         3.75921484873490   12.14669520554032   13.24576863615690
H         3.47914799447500   12.62232619576262   14.17355920061447
C         3.64441876552534   10.77236239947931   13.09258388689381
H         3.27525121257472   10.14906831878773   13.89055216545290
C         4.01344526638708   10.21068733738553   11.88212724310869
H         3.94115701526365    9.14506981993874   11.71374339872530

