99
CSD_code = ISELUN | q = 0 | S = 0 | Stoichiometry = C28H58N8O4Pd | MND = 4
Pd        6.96689601638810   12.07103284795833    0.00834352563539
O         6.23587010137319    9.66028960815598   -1.28952281945522
O         6.28767191452890   12.86443829216829    2.82547349379442
H         6.83488930722863   13.59828795556466    2.37784995487945
N         6.13068138619058   10.31750794889145   -0.18620730631833
N         6.15174711721892   11.90301969568266    1.83551493956493
N         4.53338653657196    8.82292290726315    0.87813759978252
H         5.05538060835992    7.95929574358948    0.99883608162292
N         4.69949896594810   10.44678696811542    3.06500368376881
H         4.12899899762880    9.63573938050038    2.85225108496700
C         5.40301056555280    9.94430289319746    0.82409201505817
C         5.41299697252505   10.84547627025704    1.98708564755865
C         3.64567573761456    8.70425095801684   -0.28425718423612
H         3.02781286494456    7.81747647971417   -0.11887322048362
H         4.20575165843476    8.57162831598411   -1.21872608449487
C         2.75927543944541    9.94191003259294   -0.39668442586761
H         2.23000336036352   10.08829407353274    0.54725440310278
H         3.38574901845445   10.82278154587705   -0.56836485905879
C         1.74983291027468    9.81098626408943   -1.53250762658469
H         1.14626172458133    8.91289538125380   -1.37766213199608
H         2.28434574649330    9.69123788005782   -2.47724096355649
C         0.83066219005220   11.02684030540189   -1.61779552373105
H         0.30032468918985   11.14432929293821   -0.67026284726190
H         1.43300021113313   11.92485285989377   -1.77387434522893
C        -0.18762453934425   10.89939626586349   -2.74794897489935
H         0.34002951815818   10.80277703822794   -3.69940557670716
H        -0.77520180259349    9.98988815412360   -2.60231624155377
C        -1.12361128881273   12.10040468051476   -2.80647757878013
H        -1.83131517485860   11.99575875927804   -3.62557591842136
H        -0.55802178178082   13.01746403222286   -2.95698030366639
H        -1.68486244014846   12.19240381888732   -1.87887369203992
C         4.21816461694567   11.33490595343760    4.10095016057412
H         3.87330427835228   10.71526424752771    4.93176466178229
H         5.05198780787481   11.95125023999011    4.43779502936667
C         3.08647494180659   12.24394831364822    3.60760923101120
H         3.42542492675839   12.75351716813153    2.70309656622646
H         2.89385238258737   13.00645752195141    4.36359211846987
C         1.79989691333585   11.47660622504045    3.31285417220134
H         1.39071196746715   11.07961884656766    4.24530563631308
H         2.02011815259141   10.62764102425434    2.66137773368276
C         0.75780906469171   12.36071626857546    2.63260764222113
H         1.17036410495071   12.74192776697132    1.69527721185024
H         0.53972400505941   13.21991672370851    3.27088181204610
C        -0.53794549983531   11.60833379374275    2.33932147376631
H        -0.31804099963964   10.73909949520313    1.71423258735504
H        -0.96334503293518   11.23986839561024    3.27561194310537
C        -1.55699689160003   12.49445200685110    1.63352869103049
H        -2.46603669913085   11.93789149706383    1.41673487528734
H        -1.15085241933061   12.87045945973137    0.69664795318034
H        -1.81697837332217   13.34695752522397    2.25705646180904
N         7.80364077518746   13.82424504123105    0.20347587616115
O         7.70058903251369   14.48073328510784    1.30748134609852
C         8.53071206332325   14.19768854595717   -0.80703242160193
N         9.40190353533002   15.31810569666979   -0.85992127675907
H         8.88007361904903   16.18313821912594   -0.97143630606230
C        10.29512218427584   15.42821778919987    0.29927356184519
H        10.91629157058714   16.31277361510542    0.13462713426527
H         9.73944220437575   15.55990998994682    1.23651827142826
C        11.17648356705938   14.18629596473031    0.40363844279307
H        11.70027706078128   14.04010605378791   -0.54331926724214
H        10.54684484832035   13.30784414521222    0.57610479618082
C        12.19238772542481   14.30919786326261    1.53456645025877
H        12.79983384887897   15.20451374681967    1.37875553319506
H        11.66322098978265   14.42951575874163    2.48221381399278
C        13.10544938107212   13.08819664595596    1.61225722893820
H        13.63033894830064   12.97021968502845    0.66174677452608
H        12.49919230024265   12.19300201836876    1.76932652092811
C        14.13002946015293   13.20738711876372    2.73759411771384
H        13.60767261420566   13.30428751521598    3.69193160284960
H        14.72152199781828   14.11420897696008    2.59121641779860
C        15.06001784538054   12.00138728039879    2.78846375264307
H        15.77200776129044   12.10004980190379    3.60459305338584
H        14.49038829793566   11.08679835717546    2.93882928955515
H        15.61655735323566   11.90924484922455    1.85805002047429
C         8.51889872307904   13.29807206098563   -1.97118550650756
N         7.78148363312517   12.23965531181645   -1.81917054271153
O         7.64438794697187   11.27893352651716   -2.80966553962011
H         7.09866901557815   10.54435822445355   -2.36145862301558
N         9.22957840884341   13.69893052034938   -3.05007675355794
H         9.79952524064005   14.51045191631857   -2.83760785134832
C         9.70875990020243   12.81360095151213   -4.08934517842865
H        10.04660596597151   13.43527263766750   -4.92155279271576
H         8.87549690476937   12.19426904947816   -4.42211081277897
C        10.84694515188471   11.90883512319687   -3.60297412813436
H        10.51543785466726   11.39772798507748   -2.69658566120927
H        11.03827631057377   11.14737135325797   -4.36030256898502
C        12.13230980005497   12.68103345130900   -3.31574465476354
H        12.53358191621396   13.08085726885811   -4.25038340266754
H        11.91281111858808   13.52829044960110   -2.66186039863042
C        13.18271793800181   11.80053452232133   -2.64366505403575
H        12.77686350847956   11.41358349108493   -1.70575661226137
H        13.40243853650037   10.94480276880434   -3.28609761547414
C        14.47550491184190   12.55947343549144   -2.35398929693182
H        14.25441512865479   13.42326716467506   -1.72170888601617
H        14.89234818927069   12.93670214462634   -3.29060713116183
C        15.50493668109984   11.67526100748189   -1.66107250185312
H        16.41160203535858   12.23642888898768   -1.44642203753518
H        15.10741764364739   11.29029556523636   -0.72415862677560
H        15.76633477373666   10.82861409395181   -2.29198332292116

