99
CSD_code = ISELOH | q = 0 | S = 0 | Stoichiometry = C28H58N8NiO4 | MND = 4
Ni        6.84943790093615   11.86283453380265    0.00046604206398
O         5.38271222220122    9.82676402450057    1.27926738328546
O         8.10457999354783   11.79689436337989   -2.70106678902323
H         8.28732062789672   12.71513712455346   -2.28755089210025
N         6.08489498599452   10.15450064432136    0.24547498384735
N         7.38234853923531   11.14777655594587   -1.71484887227253
N         5.93859074764165    7.98108091923638   -0.83601968344383
H         5.13668196165152    7.84988455511294   -1.44243718250300
N         7.39866544913601    9.04465650065556   -2.85683599961474
H         7.19391201136662    8.07835128700232   -2.63442464768191
C         6.31446962553400    9.33066057146434   -0.73585325187104
C         7.10122908812874    9.88616792998354   -1.84723409628762
C         5.83854862551277    7.19026019158333    0.38554587414000
H         5.45260613807072    6.20868029409888    0.09792295414316
H         5.15640537887769    7.63828419894688    1.11769666770388
C         7.22005825024612    7.03732733614003    1.01855448341882
H         7.91206247297562    6.62974800755971    0.27741482461815
H         7.58712245610241    8.02161243044818    1.31427407100596
C         7.17273785803642    6.12800824922203    2.24223617411313
H         6.80247980659481    5.14233592103768    1.94829595608942
H         6.46953500726175    6.54368637545728    2.96690659736927
C         8.54310476185479    5.97835655906685    2.89770935351893
H         9.24927431316255    5.56660287511417    2.17230023522403
H         8.90967371951599    6.96391851294687    3.19289484235557
C         8.49554501334457    5.07088429671827    4.12453088227819
H         7.78792748841961    5.48200790036424    4.84782983683887
H         8.13047433600213    4.08418389827598    3.82957273165928
C         9.86382050921465    4.92906952606071    4.77989855693682
H         9.80712778769263    4.28007743938807    5.65076763686193
H        10.23523779017069    5.90036391964278    5.09916589109703
H        10.57997897242552    4.50303488285680    4.08036296381763
C         8.35614682704758    9.26426423171370   -3.91888230410847
H         8.17565738562516   10.25104279147310   -4.34659842758757
H         9.37873722590535    9.25671163882576   -3.52270716901119
C         8.19955572600909    8.19241048253332   -4.99475994723466
H         8.77646881735179    8.49915938150410   -5.86855938613929
H         7.14850782984870    8.14937636738888   -5.28865081748790
C         8.66016290392829    6.79701679166195   -4.56492240558833
H         8.35928840945436    6.08376925805062   -5.33619192303034
H         8.15854007165660    6.49991389320026   -3.64047569525433
C        10.17166584809998    6.69601571816972   -4.36938654087823
H        10.48864513888678    7.35481834563732   -3.55909542611893
H        10.67516435251484    7.02575136733177   -5.28101119535224
C        10.61074597028148    5.27085578737910   -4.04073120540468
H        10.10284972420195    4.93596257389533   -3.13318938571489
H        10.31102812769960    4.60342604666976   -4.85199497895472
C        12.11823587751712    5.17747632352033   -3.83954829010365
H        12.41307541357607    4.15641973089597   -3.60979254776714
H        12.43413736170478    5.81841839965422   -3.01957815742033
H        12.64264527056450    5.49162225746178   -4.73912292721666
N         7.61294659035445   13.57155406804521   -0.24492618016654
O         8.31394069461511   13.89983361720748   -1.27925144919444
C         7.38352072803699   14.39530441534500    0.73647827086819
N         7.75937735920818   15.74486439362458    0.83666576363408
H         8.56119601835585   15.87608127995822    1.44320432883569
C         7.85974955807206   16.53547571554164   -0.38498762640849
H         8.24576487581429   17.51703154126209   -0.09738793721288
H         8.54199923447048   16.08723789773406   -1.11693463230996
C         6.47836860451382   16.68854663757340   -1.01825361018050
H         5.78626616808547   17.09628064783099   -0.27729029755049
H         6.11122041967486   15.70427756543351   -1.31393237667655
C         6.52605488844712   17.59776700334547   -2.24199715783017
H         6.89632280724781   18.58343050148997   -1.94804219818349
H         7.22940028013606   17.18198684570831   -2.96647176443928
C         5.15585688816264   17.74748341011042   -2.89780691914975
H         4.44952493146635   18.15928346199800   -2.17258238231411
H         4.78930362029899   16.76194041867129   -3.19307985822685
C         5.20379946004933   18.65494238451816   -4.12462255427188
H         5.91161128456786   18.24379071038394   -4.84771559069402
H         5.56882002978189   19.64162961593827   -3.82956187122824
C         3.83571868812111   18.79679778279563   -4.78038379329915
H         3.89268505720066   19.44581219077424   -5.65121768959683
H         3.46437244106638   17.82552028296251   -5.09978753222594
H         3.11936549129107   19.22283280959953   -4.08104771993101
C         6.59663770774890   13.83979728652276    1.84776303421994
N         6.31578921171800   12.57812097015101    1.71550739532125
O         5.59298713307922   11.92920409170872    2.70148350359126
H         5.41374447253831   11.00966161408293    2.28940172005098
N         6.29905042547063   14.68134219952850    2.85728606892884
H         6.50376519584826   15.64764992369854    2.63486436310251
C         5.34163035505366   14.46166992131483    3.91935290184354
H         5.52238671188289   13.47501608408515    4.34726454442657
H         4.31906081810096   14.46887283389650    3.52311867655221
C         5.49787543364631   15.53381645323785    4.99498877804823
H         4.92091774576170   15.22716173813310    5.86879173543909
H         6.54887855067190   15.57713122100885    5.28899244652581
C         5.03706000957008   16.92902097322962    4.56475840067816
H         5.33759445261686   17.64248351408525    5.33596061977251
H         5.53884750604544   17.22605474949156    3.64037830117351
C         3.52558019759748   17.02964408393065    4.36882197182196
H         3.20894186872716   16.37062344071168    3.55857561932138
H         3.02192139567850   16.69997948747494    5.28038181345933
C         3.08627255453198   18.45463755976460    4.03977603629917
H         3.59430260936867   18.78944889831264    3.13227771845154
H         3.38567568009910   19.12229313268064    4.85096842901347
C         1.57880253421523   18.54764533862564    3.83825374867640
H         1.28380460045131   19.56858045687534    3.60817475880671
H         1.26320450548282   17.90643316904988    3.01837605203707
H         1.05426008442860   18.23362244868705    4.73779534296804

