75
CSD_code = ISEPOM | q = 0 | S = 0 | Stoichiometry = C38H26CdN4O6 | MND = 6
Cd        7.62290289540747    3.16323521900261    9.18976225720960
O         7.28792626599210    4.14949989037223   11.23075057336666
C         7.72697447959061    3.12282784413112   11.78402106817236
O         8.39526784814044    2.25161510552193   11.15250959967418
C         7.37737412029379    2.85591847358116   13.20838411837455
O         8.44853807335501    0.70554461237944   13.18306603721722
H         8.65780461915457    1.08591824123436   12.28548475121239
C         7.72158179681872    1.63770943816867   13.81634138799800
C         7.28019485295801    1.38142976807037   15.11610769339271
H         7.55218003544730    0.44150542336565   15.57103760445084
C         6.52188444322471    2.31178906500486   15.79399789704485
H         6.18995596660605    2.09779807062152   16.79978583248101
C         6.18407825114174    3.51820634844220   15.19492784697741
H         5.59191179095876    4.24403333405593   15.73193575839950
C         6.61065294132024    3.78082869143244   13.91016665448042
H         6.35811279728952    4.70538471806438   13.41245272613494
O         9.09155991680789    2.21728878151534    7.69924133451430
C         9.77711308656972    3.25681115739154    7.74816205674489
O         9.65208784342310    4.10135130374015    8.68388663835889
C        10.70488685536603    3.57377204272890    6.62516518886287
O        11.29099886082532    5.70583508333588    7.56543975385031
H        10.70127557353465    5.29592641779303    8.25719043304373
C        11.37676132717640    4.80602334415745    6.57509824094292
C        12.14643042170539    5.11224084381998    5.45084400072156
H        12.65753149658124    6.06230633879907    5.42650873651803
C        12.24774464509129    4.21769477113354    4.40706630786299
H        12.84777273167828    4.47079329217138    3.54480977004987
C        11.58606544852172    2.99782834373046    4.45697134223899
H        11.67069475823747    2.30037526140743    3.63706158541330
C        10.82072148935454    2.68537612255208    5.56072268178254
H        10.28669832915351    1.74899797245113    5.62694010589445
N         5.21177953419192    3.11099386138125    9.77998407602555
C         4.51713060578687    4.20763380877975    9.96039790012338
H         4.62906782667214    4.96671219057146    9.19768345264721
C         3.68196167907186    4.41455204346353   11.06467678455972
H         3.14167262782592    5.34318330168503   11.16649180732902
C         3.58123868019142    3.42882555740685   12.01509409667710
H         2.96416904699220    3.55408412679364   12.89361622311789
C         4.28560014353277    1.17586780142642   12.79298159353348
H         3.66845995904921    1.28949522059601   13.67209906356623
C         5.03449053450117    0.06278855655370   12.60883836907597
H         5.02994246015365   -0.73495069526666   13.33683346161351
C         6.70925549683280   -1.18740727408421   11.26178434530227
H         6.71660339484372   -1.98802625585813   11.98707999573094
C         7.51899552722758   -1.21958910592707   10.15321220930494
H         8.18219714876526   -2.05119363601375    9.97311556358778
C         7.49374614853024   -0.13952200799393    9.26169351145801
H         8.13439326921304   -0.11710889407875    8.38980160859268
N         6.72131540780041    0.90823682423214    9.42813546863519
C         5.91830861269500    0.95480250176973   10.50215506165104
C         5.87273294940219   -0.07705960969764   11.46603524289431
C         4.30886537163120    2.23960044037975   11.84676670601090
C         5.11819847621285    2.13368767750121   10.69297424289905
N         6.65703482366088    3.17751733686906    6.89329557485904
C         6.39326190381641    2.07240700414029    6.24017732923769
H         5.85539114175379    1.31476677278332    6.79435304777152
C         6.77777646543381    1.85484262198462    4.91168267106194
H         6.54238210170282    0.91941292384684    4.42766055203927
C         7.47028804872743    2.83928444211107    4.25121978849539
H         7.80404095355445    2.70647557191804    3.23172861092331
C         8.49960368698511    5.10010553996136    4.32625768744851
H         8.83257448941585    4.97962317211291    3.30586869682020
C         8.79557433093846    6.22122580882971    5.02568982669184
H         9.37033484155092    7.01832607187169    4.57771100859813
C         8.71206179365734    7.49244837454463    7.16088465132946
H         9.29440362620642    8.29119945082918    6.72507713117304
C         8.30542708924431    7.53719558690112    8.47171962424883
H         8.55316418916698    8.37673082914243    9.10222268054565
C         7.58004444503359    6.45951487297111    8.99532382927929
H         7.26256222947671    6.44708647797852   10.02972732741737
N         7.25907910722349    5.40139620060875    8.28830715742872
C         7.64237819793103    5.34232147958858    7.00378403177108
C         8.38166102970818    6.37202107685547    6.37996245354510
C         7.76354251092016    4.03729616828967    4.92275659116249
C         7.32470413097877    4.15323046202813    6.26119896048395

