48
CSD_code = ISEPIH | q = 0 | S = 0 | Stoichiometry = C21H19AuClN3O2S | MND = 2
Au        3.07912251795884    2.87872584895215   14.46432202295277
Cl        3.75681824833556    4.90505861379338   15.16185245967551
C         2.56663597468677    1.02515771726079   13.96039799004954
C         2.15159195174008   -0.01058551895873   14.79281616248656
N         2.67471157427920    0.40788219133701   12.76180413148106
N         2.36576156331781   -0.86846010128406   12.79303350680909
N         2.04051023815223   -1.11936637539085   14.03132225223580
C         1.62655270017864   -2.43717703653963   14.41455985710979
H         0.55207580274766   -2.54838883121615   14.25862228644005
H         1.84987522442560   -2.58320120915110   15.47049345575142
H         2.15197531351339   -3.16017294511761   13.79419773633141
C         3.09051638000805    1.02963053677898   11.52409699306879
H         4.11191138276029    1.39997096323197   11.65502774808419
H         2.43953315306044    1.89124166709386   11.34718977662955
C         3.01200932714444    0.04411632504924   10.39018785866765
C         4.13050509151080   -0.68677783290852   10.01482616905153
H         5.06985824278970   -0.52791467296907   10.52443287093024
C         4.04909974347649   -1.61113790242218    8.98841821137340
H         4.92531008838383   -2.17237015150577    8.69981969937968
C         2.84739995547791   -1.81473639040332    8.33235997779059
H         2.78404269109712   -2.53550374770480    7.53097795177155
C         1.72744811916452   -1.09021437365168    8.70396645307584
H         0.78896954725035   -1.24499388275084    8.19303874199319
C         1.80915784839619   -0.16478059102436    9.72870167256888
H         0.93536655818518    0.40203741471071   10.01588411875457
S         1.74615611968288    0.10965035657623   16.55488340806640
O         1.77121984232191   -1.25910178718775   17.08055512745966
C         3.32967622595204    0.87956491981759   16.98712678953747
C         4.50548534652471    0.24000057386933   16.65426080688212
C         5.73066784397207    0.83116943246574   17.01704363508702
H         6.65994482954748    0.34253950466533   16.77093612317700
C         5.74775961936701    2.03517731677293   17.66390416310413
H         6.69345582256556    2.49001832489811   17.91951424015705
C         4.56143676850968    2.71583644254638   17.99587634155235
C         4.56991817016550    3.97755597210319   18.62279691972431
H         5.52148888565744    4.43359557180510   18.85239975356058
C         3.39940915732528    4.62009596306843   18.90861136564961
H         3.41077219997674    5.59656253261151   19.36829184696860
C         2.17082136476421    4.02175886860858   18.59219380722268
H         1.25365977447936    4.54436593129393   18.81958201202096
C         2.12641489742007    2.79701224294236   17.98712688908178
H         1.17847806665896    2.34343002505766   17.73656528706948
C         3.31699851314083    2.11644952895684   17.66317760395819
O         4.39337727512133   -0.92015742158631   15.94752452977005
C         5.55957315308627   -1.63794363962358   15.62447392920066
H         6.21805594950403   -1.05797165442697   14.96918325586491
H         5.21893051976490   -2.52798120526513   15.09643044495678
H         6.10694041647664   -1.94026751519268   16.52179161548077

