67
CSD_code = ISERUU | q = 0 | S = 0 | Stoichiometry = C24H32HgI2O8 | MND = 5
Hg        9.14524105274355   -3.31208067596018    2.47902541991600
I         7.02700535398447   -4.48736074894763    3.43092206218295
I        11.17551433254583   -1.89175466143188    1.67106593760545
O         9.63168981919144   -5.55114927703000    0.75068776415368
O         8.09958217499132   -3.32660271843626   -0.13710439549472
O         7.55984023978222   -1.10032110715138    1.59430247899423
O         6.95145742341011    0.76948152439745    4.61117273102297
O         9.56920741124200    0.77169015300326    5.60137701571371
O        10.88694466188826   -1.50319753688826    7.14626850658649
O        10.44384524579544   -3.41426992852124    4.99374790964042
O        10.67840622409143   -5.64051549389883    3.16130919690538
C         9.02692962747310   -5.48183529690992   -0.52331258251643
H         7.99855469801982   -5.86344887876105   -0.47177626132585
H         9.60684177099939   -6.06752254556708   -1.24867289210165
C         8.98424287080049   -4.03039861170580   -0.98095477191112
H         9.99030542026711   -3.59004752755276   -0.94578118220301
H         8.61863889739169   -3.99621482253697   -2.01726504491949
C         7.80717726723083   -2.02289689220117   -0.59073932784303
H         7.33054357930976   -2.07395947485239   -1.58043766499055
H         8.72622340193809   -1.42584369905068   -0.66663456554574
C         6.85685398703437   -1.36652809090485    0.40060397057613
H         6.47924200296670   -0.42690654110751   -0.02680117290278
H         6.00850948655237   -2.03701679130594    0.59820871244821
C         6.80195672092901   -0.36490835770432    2.53096064032537
H         5.94677504245514   -0.95266607526860    2.89239109188454
H         6.42041554290985    0.55451316117576    2.06380419528173
C         7.71030816810134    0.00509237373292    3.70283307374845
H         8.07411130309646   -0.91358476222584    4.18720646721599
H         8.57250457418632    0.56172775472808    3.32403075604469
C         7.52421643861778    1.88641759188987    5.16930516020919
C         6.71423161664942    3.00694772506216    5.28041204101467
H         5.70525052963605    2.93556135486288    4.90576938467001
C         7.18292605053737    4.17228418346934    5.85981618071786
H         6.53696074747453    5.03251177648276    5.94017157639344
C         8.48461141275406    4.22567696185345    6.31696860746039
H         8.87359367441946    5.13169433970446    6.75584451091625
C         9.30348440860380    3.11209148553261    6.22589566670969
H        10.31234561713819    3.17505695990190    6.60071324734249
C         8.83705808666698    1.92570444764534    5.67381287380827
C        10.85490413460448    0.75175474401840    6.18746655038645
H        10.80137537261820    1.06653997401857    7.23737850306885
H        11.53045552687951    1.42035465371646    5.63712652894603
C        11.40825625654807   -0.67624107673407    6.12861909314249
H        11.22241127647011   -1.09551591526187    5.13527547061191
H        12.48600791589286   -0.63659936099598    6.30661623850592
C         9.63644377016830   -2.09852952848655    6.86474642112461
H         9.04770382034285   -1.46932418300098    6.19272918399028
H         9.10792451657107   -2.19255327021119    7.81815528596729
C         9.80465756360291   -3.50056257190721    6.26440783013781
H        10.41306060680055   -4.10365581920477    6.94476169780240
H         8.82013123471848   -3.96991270005692    6.15369850777652
C        11.59244145909572   -4.21220863115168    4.83236915474109
H        12.19726510751995   -4.20796024272426    5.74679930049471
H        12.17133911518723   -3.76118514037908    4.02217596822674
C        11.25080822922067   -5.65417693170922    4.45369939169034
H        12.16936030496717   -6.25536719912607    4.45440076698148
H        10.53821696317923   -6.06976791718078    5.17963621708363
C        10.27701104428884   -6.83914495301147    2.62837891118251
C        10.39433316366260   -8.05794383855365    3.27464306444103
H        10.82181381721884   -8.11611475076121    4.26210045257487
C         9.95976508526082   -9.22528359090185    2.66456273894059
H        10.05823797055401  -10.16371815337845    3.18705624126258
C         9.40555175151243   -9.17899338791277    1.40487323811596
H         9.06194076618627  -10.08074939265636    0.92305129541399
C         9.28223109549676   -7.96575752384399    0.74346262679781
H         8.84303499414376   -7.95537318146739   -0.24026573724744
C         9.71197025345439   -6.79123138864518    1.33772774010669

