149
CSD_code = ISEXUA | q = 0 | S = 0 | Stoichiometry = C53H75F6FeN3O9S2 | MND = 5
Fe       10.41830219720194   16.21283176905260   12.39652745984163
O         9.50211343865050   14.59443565805584   12.92657909066039
O        11.47759221369215   17.84111531543854   12.48752855828986
O        10.34811753558500   15.89057993292658   10.48344981839671
O        12.15291833217411   15.28771546994405   12.73648013692657
C         7.66303888532796   14.60559172859185   11.40148915924247
H         8.32536366375216   14.40253984103830   10.56637516394249
H         6.70527206942099   14.11618420347998   11.25712483576869
H         7.53280782878927   15.68372992912011   11.45483760665172
C         8.34384242850118   14.16181261731441   12.66544542718766
C         7.63567677727002   13.30985148434513   13.53155306791696
H         6.63881233178475   13.02610017817708   13.23654834686203
C         8.06385309081872   12.88987271888746   14.78099346661580
N         9.28780520697684   13.11567622623143   15.23248241839051
H         9.97020359926518   13.49488768539806   14.57131166728342
C         7.09293420640879   12.16207328281950   15.66126965859393
H         7.59620009361480   11.72653554061521   16.52042232130869
H         6.33009262319742   12.85438338606694   16.01341859286710
H         6.59487624573200   11.37712805610824   15.09686709284678
C         9.78846360594993   12.76438360650237   16.51311125925301
O         8.64606886397485   17.31282062665225   12.56448854044304
S        11.98960688759951   13.86250016288250   12.48915190433648
O        11.47710038792938   13.52248318327729   11.19263585023810
O        11.57158178716735   13.04208895967190   13.58341999095821
C        13.82950814018215   13.41148946186226   12.35042560909796
F        14.39844673075651   13.35661972592546   13.56224419314053
F        14.50529136824338   14.33018786662068   11.64809655531987
F        14.04657764538267   12.22763249245636   11.76296745082533
S         9.06405799402678   17.73224684069621   13.89570735721073
O         9.36595544125880   19.11280783811046   14.07143170222195
O         9.97234852800016   16.78425806400226   14.50914138874265
C         7.42188698771632   17.51017811200995   14.80808253687656
F         7.05411384110422   16.22263749021773   14.80937680754631
F         6.46503940170727   18.19085962244761   14.16895116421737
F         7.41837368390351   17.92597955614740   16.07878024267828
C        10.58657806659242   11.62103293063936   16.63943965648176
C        11.10590411162660   11.31029885180997   17.88886966669818
H        11.71249428541281   10.42641924306490   18.01029052753044
C        10.85571052835992   12.11430703847060   18.98409731942681
H        11.27322911415768   11.86170365421436   19.94785601543595
C        10.06275842320045   13.23619029471148   18.84660823078643
H         9.86657512527176   13.85587728702496   19.70815114650489
C         9.51242483858926   13.57855886185840   17.61751472682795
C         8.62672246939547   14.79835213537286   17.51564933398195
H         8.25082491625699   14.87670230951222   16.49389347845348
C         9.40938175467997   16.07858243953685   17.82445962422780
H        10.07515384828670   16.32242995081490   17.00224419166317
H         8.72274289383645   16.91025678829075   17.95959206452338
H         9.99959447147988   15.97288079164689   18.73131087239195
C         7.42756083384154   14.66846734769606   18.46218073529318
H         6.92356689481044   13.71435252837829   18.32452642190064
H         7.74266781245190   14.74034343024006   19.50009642220995
H         6.71644934938671   15.46770806270401   18.26766735897629
C        10.83924848041288   10.70521884222521   15.46552005060414
H        10.48648083489700   11.19277960631482   14.55532898276534
C        10.07116569552269    9.39348296610435   15.65746629650015
H        10.22667506754850    8.74173678529858   14.80120802009602
H        10.41043750754764    8.87424418952406   16.55143391138702
H         9.00436411188507    9.58250685051566   15.75618533754378
C        12.33235298193400   10.43981840852807   15.27346193592809
H        12.84837182956741   11.38251100485903   15.11879569767600
H        12.48298815201064    9.82385010175592   14.39036526607336
H        12.76734441785872    9.92791827301509   16.12846556302930
C        13.03046669160049   17.62726670345699   10.67043385498469
H        12.58661388932474   16.65551160743245   10.47340168203191
H        14.10706264726611   17.57444969469678   10.54827589263718
H        12.62088839780996   18.34414725740622    9.96008432006673
C        12.65659292153231   18.03588893110257   12.06935534108421
C        13.64500890148672   18.63431701579464   12.87133221808185
H        14.58081904423993   18.89528607497538   12.40531136808356
C        13.55447554455234   18.76191593011561   14.24647216952998
N        12.45084960522900   18.45881339157330   14.92063536181092
H        11.66524977724671   18.09910077955422   14.37986911461309
C        14.75602665044973   19.20963815048928   15.02148452971074
H        14.46509907911139   19.61750259322749   15.98604742588529
H        15.31411413649535   19.95407449004367   14.45996518600657
H        15.41234605202408   18.35856910634659   15.19951964304899
C        12.39368216783425   18.28604489598140   16.32900194635640
C        12.93115498374100   17.12965134439547   16.90407919405840
C        12.88533897862666   17.00261915040924   18.28656422299523
H        13.28479604177413   16.11589000017507   18.75321197998421
C        12.32936765962355   17.99287724345668   19.07331045945542
H        12.31782269695411   17.88503157949765   20.14821143073535
C        11.77090304696916   19.11205012424438   18.48669141803717
H        11.32240893121117   19.86953244358471   19.11004210771580
C        11.77828705140804   19.26998530516703   17.10704682323423
C        11.14986525032886   20.48273002367083   16.46306225791204
H        11.05132752112388   20.29343169181931   15.39140582677889
C        12.03357819966952   21.71599446632317   16.67346343874847
H        13.00975706495547   21.57557970491790   16.21493471562784
H        11.56775868763464   22.58938081622271   16.22376111398776
H        12.17664464509350   21.90894420203066   17.73508504457541
C         9.74154157799808   20.73077324169564   17.00494663396311
H         9.14445795970029   19.82813169850832   16.91029219785520
H         9.75905050259640   21.03958054799290   18.04764904547329
H         9.26238291535302   21.51386873557671   16.42339746905026
C        13.46232464700612   15.99993668856873   16.05415888446240
H        13.59292403352602   16.33983978458598   15.02382009208009
C        12.40862042698280   14.88948203806160   16.02888536909778
H        11.50524545682389   15.25756029379458   15.54882758400972
H        12.76511245881411   14.04195758978105   15.45218969150682
H        12.17262839230454   14.55558110442437   17.03732032644233
C        14.80536793290052   15.46453715654394   16.55507165359067
H        15.52262108063619   16.27248980500696   16.69038341977181
H        14.69291794415176   14.94399135114239   17.50250629418200
H        15.20446780902986   14.75932524426904   15.83074334075564
C         9.50852396628784   18.04730380971259    9.82065978614104
H         8.46710531554082   18.11785106555990   10.12578391103514
H         9.65718166209250   18.64505662660433    8.92534184152652
H        10.10277250808969   18.42283781412980   10.64680421361058
C         9.84415989737559   16.60273239114801    9.57444590541217
C         9.55081283484340   16.08689379179664    8.29097176513030
H         9.08598735321035   16.75946998501754    7.58952778574436
C         9.80458502531488   14.79539317334869    7.87065537075986
N        10.37306300484542   13.87987392994878    8.65000299691270
H        10.63260137789820   14.13361938062402    9.60768356051351
C         9.41567217736914   14.36343586365622    6.48807549169953
H         8.79374774601216   13.47139795091279    6.54312178434940
H        10.29862352628149   14.10623091541893    5.90556626237045
H         8.87061435630817   15.14894315495451    5.97450381382626
C        10.82368251594639   12.61267073204550    8.19648440630813
C        12.04892205648146   12.52726928385495    7.52537928883138
C        12.48461003128404   11.27939849619913    7.10454326522458
H        13.42875295315256   11.18218307450179    6.59348903259850
C        11.72803625715840   10.14750841350944    7.34444972103047
H        12.08330108086093    9.18338364321251    7.01156398984006
C        10.52938732835010   10.24418884842553    8.02285042534540
H         9.95979969148556    9.35022187069019    8.22147693459045
C        10.05707014790316   11.47579480739465    8.45638010245336
C         8.77656893041190   11.58812743661920    9.24742745191677
H         8.42595219853902   12.62245358793944    9.18691271772725
C         9.08012606069485   11.27114194914430   10.71536219027263
H         9.84472184259321   11.94428215173839   11.09599697346876
H         9.44189601954279   10.24953261077768   10.81014727922518
H         8.18359829236900   11.38259879591406   11.32061934142916
C         7.66285697050029   10.68610183861832    8.71191765167194
H         7.53818926881321   10.81920441964391    7.63897835339699
H         6.72334598315672   10.93346990420685    9.20110841731910
H         7.87358078475522    9.63810553936056    8.90710557265565
C        12.90253333600808   13.76313072984430    7.35604963562482
H        12.25000043318185   14.63644672988192    7.26106156657912
C        13.80352513780966   13.72225643546983    6.12178091103634
H        14.25328468337992   14.70040755640526    5.96610848896019
H        14.60901812018808   13.00321939395864    6.24474205025394
H        13.23398993688374   13.46012376173611    5.23210166104372
C        13.73314645528931   13.93963418491199    8.63140184013371
H        13.08121215290549   13.98656634665582    9.49992439171915
H        14.31970404475699   14.85386612820743    8.58237462470642
H        14.40935425104976   13.09744187101571    8.75876983805769

