77
CSD_code = ISEZOX | q = 0 | S = 0 | Stoichiometry = C27H38N5S6Y | MND = 8
Y         4.03768764478113    5.26366554147763    1.86394525630807
S         5.75978689514115    7.28198827459878    0.85071579355019
S         3.75071853552242    7.05960630962779    4.05943144938401
S         6.19918852177531    4.19181408203702    3.39998919089176
S         1.56093739004178    5.25280786586165    3.28629665711976
S         3.97840437363503    2.42521685069545    2.62088153063653
S         2.84799773407492    7.45831721183682    0.48583957610567
N         5.37847208078202    3.97578958770027    0.06421401325256
N         2.65580471976309    4.10256020668185    0.01051810586793
C         4.70387627955940    3.02321201938174   -0.60738671143424
C         1.34314103429028    4.19093193950323   -0.04533627603885
H         0.89474621218333    5.02077878412655    0.48904177705220
C         2.54571028647396    2.12278325181839   -1.37203461981448
C         3.26629729652511    3.09931899796255   -0.64941675084465
C         1.14575574604981    2.23738502569890   -1.40242389654908
H         0.56437040899913    1.50340580840730   -1.94235267388262
C         5.35886771907449    1.95853257147693   -1.26565928004472
C         6.69374486707116    3.91810929000577    0.10037002015933
H         7.19521971791538    4.71688066760147    0.63535867598521
C         3.24414816776668    1.06848443441627   -2.02688688867799
H         2.66484544603684    0.33221475794654   -2.56480385443557
C         6.76112493544435    1.90982721548152   -1.18751768034417
H         7.29169680462027    1.09930926242015   -1.66704298828915
C         0.54397599022587    3.28079959325650   -0.74446463824356
H        -0.52736567798355    3.40381526004336   -0.74864579245043
C         4.59417012807360    0.98600919599204   -1.97052733713973
H         5.12269445238195    0.18116829139793   -2.46052899117822
C         7.43066928420605    2.89588555022994   -0.50697169784032
H         8.50651126885370    2.89419192721171   -0.42988918929604
C         4.37118465327561    8.22054531536970    0.54248934126095
N         4.47871599491320    9.52984691895494    0.31763442736005
C         5.75533229317948   10.20717467883442    0.40789122724073
H         6.37042094857409    9.68671625679740    1.14618416898935
H         5.57279125808634   11.22736115403885    0.75354329151540
C         6.47680744074774   10.21898727767861   -0.93622731940878
H         6.67889755114056    9.19817169968987   -1.24884673132895
H         7.41970438927443   10.75088724901208   -0.84558024340669
H         5.86919258185083   10.70566884359572   -1.69630056974331
C         2.63540303374078   10.78347730537067    1.34993569864116
H         2.29777813398487    9.90664884272167    1.89613194459437
H         1.77560954230809   11.40998111820923    1.12979182153413
H         3.32877532683851   11.34073533674683    1.97614927924934
C         3.30936663622500   10.34365608622844    0.05341700509058
H         2.60617518284128    9.75550863586609   -0.54088377337326
H         3.62839579091148   11.21072818839600   -0.52911498370545
C         5.44352122046215    2.66487907084530    3.45146572700131
N         6.01217302450497    1.66214244781138    4.12486168035420
C         7.24589709462763    1.85302840546598    4.85955469662485
H         7.24910381464425    1.15577696008932    5.70026853997945
H         7.26508777464194    2.87498480982921    5.24511089243456
C         8.46512256976058    1.62495336762316    3.97086468046654
H         8.44956400288634    0.62445582489482    3.54335319806731
H         9.37461986963853    1.74559454835408    4.55237875749248
H         8.46658638687021    2.35279134937593    3.16395831136347
C         4.41023655325741    0.22970663750958    5.32166701762039
H         4.89322531310301    0.43317554750263    6.27489438705442
H         3.98850607405041   -0.77120415462817    5.34662728026180
H         3.60467990447395    0.94467542838651    5.17759889456803
C         5.40761426968787    0.34676463100211    4.17291431792487
H         6.20903312682472   -0.38769255496985    4.28386416878806
H         4.89236904744605    0.17056737490968    3.22551211925863
C         2.13821774338750    6.54247293605266    4.24200834198226
N         1.33863228654784    7.13313938779669    5.13080189614902
C        -0.04647456663026    6.73767639515751    5.27968625933607
H        -0.41683867407899    6.41004606214598    4.30547907144440
H        -0.61413950793401    7.61469162887732    5.59960348681735
C        -0.19974198435211    5.60311997074285    6.28831859758977
H         0.34330926000945    4.72958755350963    5.93805052823351
H        -1.24872340547121    5.34216340108384    6.39688383447305
H         0.19330192176021    5.89439372045969    7.26000096615883
C         1.82190888672172    8.19956597857083    5.98408601877478
H         2.87024042252120    8.00422658648854    6.22197201679520
H         1.23872312659940    8.18107940731862    6.90756568573045
C         1.70272448335550    9.55914616996369    5.30196609582915
H         2.32510081464620    9.57386791668640    4.41169012008936
H         2.03852929049602   10.34268609173680    5.97531443693306
H         0.67284083434278    9.75833241698691    5.01365061006876

