15
CSD_code = ISIFAT | q = -1 | S = 0 | Stoichiometry = C6H4AuCl2S2(1-) | MND = 4
Au        8.09155010044481    3.99495961351559   11.67585176251204
Cl        9.18914592354017    3.46496441320942   13.61666958929922
Cl        8.25302068253463    6.23535335482099   12.12817616312809
S         7.91449837371693    1.75171675958526   11.20323934596210
S         6.99227544880788    4.50091760176239    9.72135771282483
C         7.06495780596768    1.74141036475021    9.66315674545623
C         6.78504849813941    0.51409203428280    9.07144577462113
H         7.10058187369513   -0.38335948293098    9.58139617787787
C         6.12037635167642    0.45602774499965    7.86286389106587
H         5.90833194933921   -0.50332761112996    7.41238892570442
C         5.72751235725588    1.62735463154704    7.23135871424296
H         5.20682822890280    1.58793924579662    6.28500484061623
C         6.00176908584334    2.84920273906405    7.81256291486841
H         5.70609242011478    3.77346763107402    7.33993972233494
C         6.67101090002121    2.91568095965274    9.03008771948377

