58
CSD_code = ISIJEB | q = 0 | S = 0 | Stoichiometry = C19H31BBrO3OsPSi | MND = 6
Os       17.26848874841031    5.33246405827032    9.99936828146673
O        14.41140694298537    4.39270485981814    9.46751696810999
O        18.06087580626336    2.55938341669915   10.99739541340765
O        19.92135055829922    6.74513250461468   10.54992920976797
C        17.80183872804017    3.61137543291727   10.61806512756612
C        15.49125649422733    4.72449938468876    9.68799224919854
C        18.92785015565754    6.20701213481619   10.33283015774199
C        16.26996272812605    4.70791687625871   13.12248084606434
C        17.16957460427033    3.92332574661063   13.85979766542671
C        16.69742967320470    2.93400303316444   14.72093837127544
C        15.33064433659722    2.73693065830899   14.83698570841797
H        14.96506966515371    1.96554764155580   15.50098357217807
C        14.41973866576091    3.51630206201023   14.14265502285948
C        14.89321050881939    4.51062166784233   13.28850246205909
C        18.65019783330846    4.16596035119163   13.76012936098241
H        19.18928649932259    3.23001459977271   13.62003252208555
H        19.01604543754456    4.62806255302529   14.67816976377265
H        18.89555867990608    4.82642710118732   12.92834546398606
C        17.64591997703721    2.09354810622968   15.52192137984678
H        18.28322383462804    1.49940500046478   14.86692968894887
H        17.09876709994449    1.41638283191140   16.17296457677704
H        18.29134438340538    2.71976371495194   16.13633092305806
C        12.94809973367769    3.29568866205274   14.32049880246826
H        12.46693033114631    4.19791153400178   14.69678013627049
H        12.76424061824892    2.48690479513181   15.02330220480474
H        12.47882171271680    3.04163849392449   13.37023404203611
C        13.91794633851101    5.40182189136130   12.57579409708286
H        14.43473224287706    6.09156611441743   11.91096361443472
H        13.34487860984025    5.98588555803833   13.29672412906077
H        13.21171459521138    4.81653189553162   11.98767037169351
B        16.81808102177160    5.81358344344622   12.14290890065920
Br       17.24346604262946    7.46011882851835   12.99836061489682
C        19.22757704638968    3.34938166641068    7.71369959711655
H        19.58153285271431    3.15775202605213    6.69992811535371
H        18.72950962139604    2.45886491099653    8.09619267413498
H        20.07765744856558    3.57643570287883    8.35701656030002
C        19.05205620879725    5.98299287304594    6.77978027238186
H        19.36397945682278    5.55696712080550    5.82562170443751
H        19.93289830788139    6.24563924977126    7.36557292760306
H        18.47128041625213    6.88607686751638    6.60611840631356
C        16.86286990458904    4.18805618400278    6.45518672049353
H        17.38786952967494    3.91237433597392    5.54006101237116
H        16.14223901004571    4.97410374184426    6.24197462830359
H        16.32782685184529    3.32125769204408    6.84311597059360
C        17.65219782492199    8.97930260620213    9.13911608478582
H        18.52310883015452    8.72487523280895    8.54097833592711
H        18.00364953261272    9.25666702835250   10.12834984911848
H        17.19378966235598    9.85810157659609    8.69638957697138
C        15.57644071108699    7.52024380197534    7.47036813971221
H        16.29392810326721    7.29809551238756    6.68599291426915
H        15.15354607606780    8.49546412400100    7.25172848243512
H        14.77041031955566    6.79493919315070    7.40037618077278
C        14.90701793913978    8.35264101315478   10.22466891977699
H        14.64580373340046    9.29643657032913    9.75603179939487
H        15.15904166080273    8.56928260858603   11.25692201400725
H        14.01619081633078    7.73063516054467   10.21775257452894
P        18.05610245127417    4.76461780572994    7.72090398606015
Si       16.36372307650830    7.53826044210798    9.24475090443625

