58
CSD_code = ISIJIF | q = 0 | S = 0 | Stoichiometry = C19H31BClO3OsPSi | MND = 6
Os        3.92242712760219    4.92512178889400    7.33093935703375
P         5.49514327893583    5.31892615161522    5.46960073996796
Si        5.34808549843228    3.11456266994566    8.28572994972475
O         5.44990320350710    6.66521545775292    9.32197514266354
C         4.85626497509240    6.03187910331659    8.56566110692371
Cl        1.77428205802166    2.91253378781017    9.19714722904690
B         2.29294544860117    4.50544172330946    8.82855369360002
O         2.47310882807135    2.75492481299519    5.74125372792586
C         3.02977403987416    3.58081306838256    6.31823731238335
C         2.84591938148258    6.38185378253160    6.74636035173829
O         2.22242129081385    7.29336697042566    6.43277558726002
C         5.21287767792345    2.71924103410056   10.17487352324360
H         5.86804552980331    1.88951615236267   10.42209003454878
H         4.20768806855092    2.43751238060522   10.46766666146444
H         5.51439081168497    3.56548710221114   10.78538679572504
C         5.14502157344158    1.36273115655066    7.48200512407885
H         5.87345681874978    0.67173555583435    7.89506006501516
H         5.27549525872219    1.37464762906137    6.40326456715303
H         4.15785583375639    0.96007644380497    7.68608338983733
C         7.26631606637048    3.41078316326372    8.15894733328290
H         7.79294919880924    2.60984869596509    8.66814942712342
H         7.55645266352589    4.34302281840328    8.63565225584673
H         7.62908793388163    3.43337117739696    7.13541282244265
C         6.10470733407579    3.89779132236296    4.48420992477800
H         6.74004233566661    4.24783606387945    3.66995118871082
H         5.24885130223409    3.36213261944460    4.07403333410811
H         6.66487955436815    3.21783482320271    5.12197860516675
C         7.03933662288716    6.25839327633930    5.77074678951185
H         7.58063969723437    6.40597565534468    4.83568092060717
H         7.66535334109739    5.71822793445771    6.47721986913105
H         6.78368311040716    7.22619649878086    6.20151895314090
C         4.76708400574421    6.33344379736743    4.12223310155210
H         5.48357372211231    6.45345569703033    3.30876144725069
H         4.49348742135286    7.31358525254412    4.51130697219616
H         3.86844014284330    5.84519048034619    3.74585789558928
C         1.43617858201384    5.66696061755900    9.47702603075380
C         0.26767214989049    6.11282363316515    8.84362560859665
C        -0.47521576663907    7.15804470915445    9.39170279508659
C        -0.04671052355000    7.74506108074275   10.57127724873688
H        -0.62112868686589    8.55831603710263   10.99386800643556
C         1.08924539423713    7.30602413210505   11.23160559434418
C         1.82982896730483    6.26013536112946   10.68282037558749
C        -0.21668950120053    5.45784816675476    7.58066514282799
H        -0.37996169792090    6.19885157398700    6.79859285858800
H        -1.16550803050839    4.95163739111503    7.76054599277474
H         0.49775036283646    4.72242946116448    7.21574557336717
C        -1.72516613803687    7.64619764436210    8.72268515359632
H        -2.18204170894386    8.44473519150873    9.30197038076287
H        -2.44758526072220    6.83760317645642    8.61704386136661
H        -1.50460159148618    8.02670276653336    7.72550380586748
C         1.50614969642191    7.94763171440636   12.52073059623866
H         2.50813897564680    8.36717376590298   12.43570755386419
H         1.52156842929008    7.21525221930738   13.32731098532232
H         0.81910445483209    8.74547130361688   12.79168784537089
C         3.03977014261330    5.75092163051553   11.41007122780229
H         2.75733285707204    5.36500943090317   12.38969003937342
H         3.76398416469431    6.54994474304054   11.56600809768688
H         3.51679357337735    4.95104820078640   10.84889002575304

