55
CSD_code = ISIKAY | q = 0 | S = 0 | Stoichiometry = C20H26F4N2O2Zn | MND = 4
C         6.03611114776631    7.51005324817555    3.59319631624870
H         5.21437435162810    8.12961378236597    3.92207691007013
C         7.37128496164674    6.62140048947788    1.79738370341733
C         2.35439234767128    1.05288777313452   11.01857989692866
C         3.64559620438033    0.76934803179542   10.58605116158860
H         4.34906778042812    0.26142183706824   11.22657607391954
C         6.31498211517255    7.41641612939417    2.24807939035390
H         5.72648379155560    7.94753814874926    1.51725903664281
C         4.04102010213460    1.13790027077522    9.31212112247849
H         5.04504109602755    0.90588045374171    8.98469648460813
C         6.80267235473988    6.82082965226023    4.52831173273099
C         3.99598968483715    4.56355695598355    7.70730330081945
H         3.66330156378779    4.44298926051056    8.74709517047519
H         3.12283321070504    4.79241035561959    7.08849874331065
C         3.17294036914872    1.78879843214088    8.44657568904988
C         4.46316599130525    3.79025666849937    3.78577670550812
H         4.70306131286421    3.86860252525155    2.71606058105274
C         1.88421644645215    2.06900734986303    8.88632593971059
H         1.19175738206093    2.57159410490145    8.22682423901109
C         4.99929320769036    5.70898364359624    7.60839390692308
H         4.55863034903630    6.63059057791642    8.01440116478474
H         5.89432591902739    5.46718812329541    8.18867168862379
C         6.44669648828256    6.85608234782280    5.98775886232610
H         7.31065460191211    6.57810232886734    6.59565617206491
H         6.11194999157433    7.86060504892292    6.28560107898366
C         7.85358696603725    6.03511763037889    4.07766920473078
H         8.48136756253830    5.52252505969710    4.79152533560773
C         3.66150824525614    2.22351307620113    7.09018642117820
H         4.18375036402387    1.39938101580660    6.59717251108192
H         2.82842656929771    2.52870624080954    6.45446874342734
C         1.47633198591949    1.70571340607396   10.15213553174462
H         0.47723443122306    1.91633332632203   10.49922267369977
C         8.14467524343181    5.93419007316830    2.72684855425627
H         8.97500667469090    5.32095465967284    2.41526719535245
C         2.68645392776773    0.06980104199757   13.16078589486184
H         3.00203702432227   -0.90493431811967   12.77507548642869
H         2.08320479899690   -0.07611040277265   14.05541445183674
H         3.57037330874228    0.66409442308037   13.41472955426776
C         7.58659243713010    3.09957308557448    6.17660369139788
H         8.52563268599568    2.84001246307530    5.66751874458488
C         8.60326378048719    5.80491983589168   -0.06753324257875
H         9.58050968440485    6.14286256239829    0.29195313968728
H         8.55554141052902    5.92937736203996   -1.14811631679751
H         8.46871332008038    4.74759514685114    0.18126822675129
F         7.95743733404473    4.02496283042356    7.15370752603604
F         7.25987031992107    1.96881959385590    6.91777538114898
F         3.66267319011634    2.66629788775723    3.89712561910673
F         3.58209115048591    4.84656278668861    4.02469686378079
H         5.33266392936303    3.05926433330259    7.84312106387671
H         4.57600252012046    6.15574602663840    5.68287666167341
N         5.39532820639242    5.85987727091356    6.21319469520072
N         4.60872971988705    3.34553708295731    7.18269633756613
O         1.85533027146023    0.74295387986495   12.24697867348819
O         7.56038476502937    6.59469656179348    0.45234514824555
Zn        5.82233540048263    3.85009851752302    5.35291115673723

