111
CSD_code = ISINII | q = 0 | S = 0 | Stoichiometry = C48H54Cl2O4P2Pd | MND = 4
C        10.63639025158518    4.85811779955951    8.52383862340326
H        11.37892366674236    5.15010616861680    9.27853432980358
C         9.35559855947380    4.43904917071678    9.27258983432833
H         8.62264441940585    4.04940217103706    8.55699304118134
C         8.72335221037681    5.68503448961804    9.93369585574484
H         8.47309477477650    6.43644017055104    9.15029608785155
C        10.23130204084763    2.95028977043424    6.35966318703569
C        10.42760020356833    3.40405432530437    5.05828925008612
H        11.29450871604879    4.00531856971562    4.82224170644155
C         9.50886480294220    3.09564528024220    4.07221278171738
H         9.66581066119917    3.45150592645339    3.06430416303179
C         8.39087112746100    2.33445936822450    4.37359561369592
H         7.67622999801819    2.09473064461829    3.59986861720777
C         8.19525177172464    1.87359440803618    5.66500836754577
H         7.33099698812696    1.26968139428830    5.89983637862677
C         9.11228149570347    2.17658284649059    6.65512143323401
H         8.97624673872783    1.78860354752363    7.65534095616596
C        12.87873279111124    3.83927561578211    6.78087557260863
C        13.48937738830812    5.08359735157020    6.74697421840709
H        13.04642362990364    5.92290240398838    7.25623079754401
C        14.68202907849308    5.24372659432958    6.05933696074463
H        15.15529005573111    6.21462233617966    6.03702138777025
C        15.27116431545789    4.17202495961961    5.41220332725118
H        16.20348213536120    4.30625616680512    4.88346858503798
C        14.66925004720569    2.92269689493768    5.45089430936517
H        15.12959959381284    2.08155773670642    4.95390262877161
C        13.48281503767715    2.75583474251369    6.13656279575800
H        12.99581083991549    1.78276654451735    6.17415866144605
C        10.39542946825891    6.01793670242727    7.60093340683400
C         9.44136810735998    5.97895713277122    6.58937237963203
H         8.84505808972638    5.09231950230247    6.44022865390321
C         9.22919379312041    7.07759824338928    5.77471354199871
H         8.48822510917191    7.02277488089584    4.99047366063288
C         9.95309563946857    8.24125610049093    5.96581765350343
H         9.78670683035996    9.09688994390168    5.32840515163673
C        10.87857440206654    8.30617933212076    6.99380257923222
H        11.43108254262301    9.21793189274672    7.16865626755413
C        11.09303512944903    7.20658219526602    7.80439049860360
H        11.79501003872463    7.27360173969701    8.62414721916318
C         9.64198629653905    3.39329730409804   10.34715835768639
H        10.47500050830970    3.73470325107447   10.96316596723091
H         9.87426421405427    2.41186171394746    9.90357805875894
H         8.76718695699038    3.28199442213575   10.98464852758059
C         9.27809908998582    7.46373785230050   11.36565231817522
H         9.15038913662174    8.20689324386483   10.56811085272449
H        10.09588867706713    7.75986551441652   12.01849678113373
H         8.35184095382743    7.38958295100526   11.94096691933116
C         6.38728382961499    5.25540162999909    9.83134348772507
H         6.25994333488779    6.13514486028790    9.18768249840595
H         5.54504848402542    5.18029722669846   10.51662568611721
H         6.41910565754520    4.36004703033882    9.20068856602790
O         9.64349616699437    6.21313477161472   10.82526735474718
O         7.53326982429131    5.37455481342366   10.63209082165444
P        11.39084933745594    3.35736767842121    7.70374284048980
Cl       11.03760357941627    0.00161483103685    8.14672987106721
Pd       12.20283831512734    1.73998976489878    9.07426241953066
C        13.77066119263668   -1.37806948526478    9.62418223334424
H        13.02808249722990   -1.67019791932055    8.86959438556357
C        15.05140901276272   -0.95907655231143    8.87532056294834
H        15.78441086177128   -0.56928189247812    9.59079359787602
C        15.68367051818163   -2.20516755185750    8.21444819584732
H        15.93371876344357   -2.95655238856457    8.99791902405633
C        14.17546710624877    0.53029265896848   11.78802747776486
C        13.97914775773085    0.07699609419167   13.08958033012673
H        13.11223922441571   -0.52422278195554   13.32573523988512
C        14.89790174408416    0.38566770769499   14.07555699493749
H        14.74093263031836    0.03015779510867   15.08358707259180
C        16.01591140710317    1.14671948510125   13.77391307779213
H        16.73050380436770    1.38677905045717   14.54758848904975
C        16.21163499824975    1.60703903027928   12.48232569530179
H        17.07593157844406    2.21082124563747   12.24731796930748
C        15.29461550404030    1.30373229519914   11.49229449494958
H        15.43072803425069    1.69123108079647   10.49190046981351
C        11.52821277760167   -0.35929147553141   11.36704848392482
C        10.91768464114809   -1.60366341619307   11.40071852305200
H        11.36075128763991   -2.44282095536694   10.89130593646803
C         9.72508795863390   -1.76399952745438   12.08839388413458
H         9.25188084016605   -2.73492058382629   12.11050630371851
C         9.13589409738013   -0.69242244316876   12.73567093745454
H         8.20361070163777   -0.82681821947185   13.26441823909316
C         9.73757673729365    0.55701466322633   12.69699836332314
H         9.27700172642326    1.39811336892507   13.19385677638850
C        10.92400796371555    0.72406667043568   12.01137319395913
H        11.41091223406029    1.69718067534961   11.97378221310174
C        14.01165948292024   -2.53769760487761   10.54733888004619
C        14.96541597455964   -2.49846831925422   11.55917534339949
H        15.56156456719819   -1.61175343412057   11.70847626026060
C        15.17756186370874   -3.59701132495252   12.37398839393752
H        15.91823974218059   -3.54194327428542   13.15848716989391
C        14.45398404074025   -4.76084601565468   12.18275943828099
H        14.62037491413711   -5.61640073779494   12.82026930623292
C        13.52879978215559   -4.82600496752894   11.15452142046092
H        12.97648711920703   -5.73785472323191   10.97957271762580
C        13.31432769030577   -3.72649208509543   10.34382630050392
H        12.61253581257159   -3.79375146955670    9.52393049719934
C        14.76505901989220    0.08639454771874    7.80046962251585
H        13.93224725170867   -0.25527482648450    7.18434667993869
H        14.53253434479590    1.06789058929229    8.24376080004503
H        15.63999658680835    0.19770796595145    7.16316655138781
C        15.12879295237449   -3.98410245723339    6.78279929463806
H        15.25607540553939   -4.72704774001231    7.58060424952152
H        14.31105304303843   -4.28016655381530    6.12986169588528
H        16.05520346560603   -3.91044980717899    6.20766286272797
C        18.01983569176013   -1.77586824441018    8.31714249829942
H        18.14693515254342   -2.65564897937324    8.96079417969637
H        18.86215770358414   -1.70091318506384    7.63194669523446
H        17.98814644043731   -0.88052178292101    8.94782059236731
O        14.76367034753831   -2.73322330537437    7.32270102065117
O        16.87391221625195   -1.89476172470551    7.51626727905125
P        13.01595506135225    0.12264045581987   10.44411833981164
Cl       13.36836987331169    3.47816845158636   10.00102193173275

