47
CSD_code = ISIPAD | q = 1 | S = 0 | Stoichiometry = C22H20AuCl2N2(1+) | MND = 4
Au        4.61490636300199    2.37810952707510    6.76099912675315
Cl        6.33291741314376    1.95236749797372    5.37396119107062
Cl        3.84505422469982    3.94882016828970    5.34916059837144
N         5.22206852406048    0.90119085200599    8.22367736729029
H         5.11636778657030   -0.02199263917345    7.80572138479106
H         6.20842152128731    1.00097324318567    8.46529648036264
N         3.04505491185365    2.65219664656869    8.20072679772757
H         3.32271384525908    3.42427670764363    8.81040216919371
H         2.13843272244162    2.89718446908255    7.80297630614097
C         4.38503808023240    1.02585024211988    9.44145734948258
H         4.33122761032104    0.05138622396022    9.93653254584730
C         2.94798199826402    1.41298294113339    8.99595222714485
H         2.58351858950183    0.64269005146314    8.30996900860758
C         4.93914609982304    2.04843654682291   10.40932158020798
C         5.61502125426517    3.15134946591197    9.94035834456796
H         5.81892187830518    3.26910489906705    8.88210294842854
C         6.07204310756038    4.15461304094083   10.80437507376004
H         6.60665470312435    4.99725653989735   10.39566909338720
C         5.82641053677734    4.06096355267203   12.14417790730536
H         6.15669577458713    4.83610604084160   12.81822588885530
C         4.88522685025253    2.85901858241226   14.05839405922677
H         5.22394231748479    3.66225505366321   14.69505077050314
C         4.22818397978035    1.78341893177403   14.58331234262616
H         4.03154662121791    1.72188855206526   15.64198260629580
C         3.82091229781302    0.74051028051756   13.73999532497728
H         3.32173310781326   -0.11927928581279   14.15968526698762
C         4.05543784349726    0.79591704948140   12.39420738455791
H         3.73089007087246   -0.03620341995632   11.78962155962840
C         4.70288871980142    1.90641751348841   11.80736309931947
C         5.14191709413069    2.94828746350521   12.67347862528202
C         2.00514461506895    1.53489218577108   10.17445372281707
C         1.88611516358812    2.73104232872429   10.84418955381223
H         2.43826598843439    3.60654875299983   10.53330551973407
C         1.06262688650770    2.85938998819957   11.96719124300538
H         0.99722786696593    3.81354336630933   12.46503929352941
C         0.35848033491923    1.78188976400328   12.42464295598039
H        -0.28022277981078    1.86974293936385   13.28990074195404
C        -0.25098171946945   -0.58513253441949   12.26818350348242
H        -0.87378543441070   -0.45591697693030   13.14033272445839
C        -0.14775632225541   -1.80514995296782   11.66073059494260
H        -0.69146562121006   -2.65630914791756   12.03898874298189
C         0.67255678963765   -1.95125561444752   10.53474155725207
H         0.75253835765078   -2.91615623890880   10.05793997939844
C         1.36900759965364   -0.88417007193837   10.03334237843835
H         1.98405914936630   -1.04313603520105    9.15997521675859
C         1.28754604675608    0.39324953389448   10.63102067598722
C         0.45606723086239    0.53353097484835   11.77886716676624

