80
CSD_code = ISIRUX | q = 1 | S = 0 | Stoichiometry = C36H30BN8S4Zn(1+) | MND = 4
Zn        3.18347761802006   10.68374616188949    2.04996627389015
S         2.54665095465884    8.36652255997794    2.73896889175619
S         4.53461784362835   10.42434206749715    0.04641365101763
S         4.66096696267508   11.33474328278691    3.89110918047053
S         1.11047590296597   12.05768447115975    2.01180370246064
N         5.09722898719999    8.31613742466134    3.75470130392709
N         3.50261318739312    7.99929528360782    5.22436389740561
N         5.20761881649492    8.03996783472287    1.23389237079059
N         4.10204509963190    7.85651096863479   -0.64803020192119
N         6.47421391264435    9.94620121031456    2.36930265344513
N         6.86437090241622   12.09590530307244    2.53988044587964
N         0.19669239056236   11.32836822020402    4.44303119650487
H         0.64793859296522   12.11196465727014    4.89041793307449
N        -0.45440320089168    9.97421236737267    2.87703734286209
C         3.77009490941345    8.21535478684665    3.91630059097587
C         5.67082847607052    8.17917127499621    4.99228420482143
H         6.73172708564044    8.22750898327613    5.11820666217188
C         4.69318142104572    7.98983946463538    5.90514845364498
H         4.73990646548380    7.82592442901818    6.96123509019303
C         4.60767142451748    8.72774384583307    0.24993822943647
C         5.06294285975358    6.70710142691158    0.94598318956750
H         5.45565331419635    5.95440508625841    1.59662042099731
C         4.38635258795450    6.58759606819994   -0.21823583812992
H         4.07024477644060    5.72279231192252   -0.76309391480554
C         6.04130109401318   11.09494257302994    2.91263960678074
C         7.58862288127759   10.24357856391174    1.62761321811730
H         8.11556774261912    9.48303745222207    1.09144280504798
C         7.82961399588526   11.57024115220367    1.72277013046851
H         8.60417483191007   12.17629351379022    1.30173533276391
C         0.27403023146388   11.08269623330440    3.12016304992294
C        -0.57212363778423   10.36816746345126    5.04170683772427
H        -0.77404693608578   10.36341244807353    6.09174809614956
C        -0.96982236536297    9.51986009175373    4.06561889078734
H        -1.58978903356705    8.64949940989724    4.11129698463409
C         2.23325905835847    7.82843674963556    5.81727697297348
C         1.92460249752572    8.54393257925884    6.96753650986894
H         2.64230524336819    9.24008289721047    7.37485471880339
C         0.69729631985378    8.35700434435439    7.57775705940118
H         0.46162915694008    8.90163258678594    8.47932117347747
C        -0.22054710667734    7.46894404959055    7.04054210100845
H        -1.17362308263450    7.32020138949222    7.52374311345208
C         0.09089769177037    6.76325283537751    5.89040602308727
H        -0.61656371624198    6.05938243639731    5.47954347208894
C         1.31886752486087    6.93456802546961    5.27627635395202
H         1.57908511755717    6.37095962804442    4.39432450469962
C         3.39163022994201    8.17104111307874   -1.83174365827429
C         2.29005856830408    9.01317756204137   -1.78546301919913
H         1.96314769490850    9.42973326412040   -0.84377530899598
C         1.61528039896804    9.30814089466317   -2.95632521493010
H         0.76810237544507    9.97448602425562   -2.92562654244268
C         2.02462328978217    8.75540328892739   -4.15812729807892
H         1.49523137125602    8.99096380737366   -5.06825177382083
C         3.11413931004207    7.90075865912594   -4.19434194687017
H         3.43420897130585    7.46757302163700   -5.12913189389342
C         3.80379292215273    7.60703521865357   -3.03205787466929
H         4.66543751470849    6.95664510990582   -3.05274955931709
C         6.73783405494705   13.46652030357264    2.86778339240973
C         6.78409650853527   14.40594446488744    1.84555916861815
H         6.89005832529804   14.08085926516121    0.82134003590907
C         6.67183699470804   15.74946416041866    2.15330312313281
H         6.70446360473295   16.48211156887727    1.36200103648445
C         6.51271717633581   16.15119390513184    3.46970573143967
H         6.42459889043178   17.20041428824121    3.70515733669988
C         6.46655378996744   15.20855231470086    4.48304031831053
H         6.34566677156238   15.52025129038879    5.50886763109886
C         6.58212150593466   13.86134655903559    4.18895058588657
H         6.55536409233984   13.12129526634093    4.97349260621121
C        -0.63577451832927    9.34901009622689    1.61961917751064
C        -0.47242835028475    7.97321927034736    1.51707484689325
H        -0.19426665568228    7.39956025578739    2.38702344636000
C        -0.63816611385190    7.36078350492155    0.28802207504625
H        -0.50030465677906    6.29415246091677    0.20190193487013
C        -0.98130929794383    8.11048604356595   -0.82515576608042
H        -1.11162888004372    7.62738863189944   -1.78111307700871
C        -1.16238848957846    9.47884960814813   -0.70987488278709
H        -1.45064590714690   10.06358556436108   -1.56939159931852
C        -0.98600396700710   10.10719562950607    0.51001983917374
H        -1.12562545638786   11.17219564732837    0.60556093465235
B         5.97466398395445    8.49308850145016    2.49516206265951
H         6.92386514757829    7.78870752070037    2.61538144666690

