103
CSD_code = ISISEI | q = 0 | S = 0 | Stoichiometry = C48H50BP3Pt | MND = 6
Pt        6.51250727746370    8.60208857077835    9.22179708362368
P         8.78110146729774    9.04255066107233    8.27851752647356
P         7.38791723991140    6.35776212797037    9.75876974327291
P         7.51640216995090    9.20050834139808   11.44145685609915
B         9.89414746180260    7.63250725407040   10.60090742781159
C        11.36090105926775    7.36666032716982   11.23511650743103
C        12.36576998062380    8.32266811884761   11.07350919521619
H        12.15664446040857    9.21714093109597   10.49923427323944
C        13.62290082751967    8.17451367553863   11.62882596164686
H        14.37494616864622    8.93805014999329   11.47765418295699
C        13.92066398608890    7.05155444742113   12.38173830531901
H        14.90209857072552    6.92862895866706   12.81857668969816
C        12.94275587312646    6.09250281668212   12.57173173772549
H        13.15805410620917    5.21266823488909   13.16414599326370
C        11.68836528292932    6.25501549304026   12.00827423904988
H        10.94655785622653    5.48785549689381   12.18404096611071
C        10.03981389583787    7.92622285611215    8.97346773824563
H         9.93619212896638    6.97383585630828    8.44230379233865
H        11.01605205439730    8.34540759921179    8.70921879004933
C         8.89384275784335    6.32757515466083   10.79077880939582
H         8.56542867650807    6.23733981568263   11.82695710021238
H         9.41175692993864    5.39899972783024   10.52689875020313
C         9.31605536408012    8.99009702161013   11.37442348447167
H         9.69220515762047    9.86378775297471   10.83274389050746
H         9.70222413491378    9.07279958577326   12.39569809737077
C         9.00390120013089    8.96479318024109    6.45815332535223
C         8.30385647166159    9.89378968925075    5.69123320764777
H         7.66287661552292   10.61168289279209    6.18529553612415
C         8.42697646830393    9.90956174041595    4.31550257479350
H         7.87696740844880   10.63472692427339    3.73358372210865
C         9.25583896658382    8.99583099912779    3.68427293936047
H         9.35315360315596    9.00491797564128    2.60868784350599
C         9.96175708478181    8.07478474204602    4.43846737946473
H        10.61634229532948    7.36540474603125    3.95239253594614
C         9.83811130180284    8.05679640255438    5.81717538541565
H        10.39724891300779    7.33008039795754    6.38803560320607
C         9.54937975574686   10.69904426575174    8.46886712377258
C        10.76713822657417   10.95773107084688    7.84587739749729
H        11.23829861623051   10.19372219607471    7.24253504381809
C        11.37787904962978   12.18867344170155    7.99178880562055
H        12.32486274946779   12.37797250775815    7.50718367675242
C        10.78084733467153   13.17822374712352    8.75703538663304
H        11.26251554281981   14.13822442435860    8.87083599267478
C         9.56632280730412   12.93115100393004    9.37286610909164
H         9.09209594432993   13.69421043310560    9.97327955740606
C         8.95426064773671   11.69940119035578    9.22464070074608
H         8.01104368553685   11.50707744289440    9.71342981347020
C         7.83508036784231    5.19022165181660    8.42043872950038
C         8.02045933291047    5.61032392714833    7.11176391420854
H         7.87188207360199    6.64952579209740    6.85962162370223
C         8.40022400385276    4.71156963051052    6.12998086529858
H         8.54202771772245    5.05708495460985    5.11595177584474
C         8.59502683900301    3.37958579138045    6.44938193512493
H         8.88852872306298    2.67481382046959    5.68537025898606
C         8.41339172715814    2.95107600600709    7.75558667997850
H         8.56687773843024    1.91211545425288    8.00928823739260
C         8.03791361216399    3.84868538423818    8.73599600238781
H         7.89587324919918    3.50932784578171    9.75338295589308
C         6.14181433726110    5.30737139567467   10.59093135467506
C         5.13945218304869    4.76086871262951    9.78895599391441
H         5.16800468621228    4.92541668016595    8.71984219252126
C         4.12152386612161    4.01219943949290   10.34383753713891
H         3.35536277315811    3.59065006336037    9.70930446194859
C         4.07951750744420    3.80594701762990   11.71422548090239
H         3.28150433133861    3.22369449931192   12.15080811594902
C         5.06306500941455    4.35205887591820   12.51896747149644
H         5.03665078263799    4.20102561871707   13.58857024472279
C         6.08747680301008    5.09929009276814   11.96293084219315
H         6.83950962729617    5.51768945939344   12.61419544339881
C         6.99702005276449    8.32104326945145   12.97143976183481
C         5.65440937436941    8.34645222605802   13.34087082372999
H         4.93834203279475    8.87246323142627   12.73003360673245
C         5.21964733450772    7.70731057053027   14.48657936973198
H         4.17205938764265    7.73333478655794   14.74948952108541
C         6.12226342368241    7.03551426656842   15.29315576594394
H         5.78514198452581    6.53215762433313   16.18737362046169
C         7.46208884873517    7.01960572942488   14.94692351417873
H         8.17748616114676    6.50562063227906   15.57313950555998
C         7.89879890883003    7.65631079190876   13.79748806627724
H         8.94909507876440    7.61885922285524   13.55320078160026
C         7.24931379883483   10.89361591003474   12.10928495667833
C         5.95738653821319   11.41248375006524   12.13997175865323
H         5.13493800633172   10.82480811113524   11.75806749342909
C         5.71584913079591   12.67716872605049   12.64324521979107
H         4.70798530630539   13.06633593723846   12.65798740656527
C         6.76424815120349   13.44543200523217   13.12090040149687
H         6.57830525762370   14.43548207662611   13.51046428667755
C         8.05197907999054   12.93818194627981   13.09372436021980
H         8.87502560493419   13.53191312530739   13.46494246108587
C         8.29514000667169   11.67173880578788   12.59259077144306
H         9.30734420190204   11.29809924334223   12.57515721439447
C         5.67449193084627    8.05275109418284    7.37783382380458
H         6.31688920386680    8.37111026954658    6.55508960868861
H         4.69104145935832    8.49191828880316    7.21369372080122
H         5.56459612926035    6.96821251736345    7.33296712415814
C         5.74582449376415   10.50207929980682    8.75353953260733
H         5.83440809524767   11.18317786430332    9.60089439181954
H         4.69411774601253   10.47415492578215    8.46720028849167
H         6.29979795317968   10.93446325546613    7.91869868856195
C         4.64194888336117    8.13238650671090   10.03984904252336
H         4.07023529317568    9.02018947679190   10.31301449039848
H         4.79712267319458    7.53057999270679   10.93647743681333
H         4.03081159918933    7.54426001673972    9.35535226443014

