70
CSD_code = ISOJEH | q = 0 | S = 0 | Stoichiometry = C31H29N2O5PSW | MND = 6
W         7.84480188831165    8.60179432069648    3.11858595142215
S         6.23396757803058    7.56783740833280    6.42952865993408
P         5.92352177526117    7.63477292361588    4.36163733696333
O        10.29607611450721    9.97024138425318    1.74645913137678
O         8.02887962276303    6.42606117181009    0.86141969028593
O         9.90755396268424    7.01806539468993    4.87524608634492
O         7.88965604905184   10.74851096139113    5.41028226592726
O         6.06139678472878   10.36020424598020    1.22767106064003
N         4.68887264228376    8.72142107290655    4.83800222975529
N         4.35490085533505    9.55970362804409    7.01486215873816
C         4.89954664482449    8.83041654670695    6.17932304968570
C         4.69696583375613    9.54361770891749    8.40991116186740
H         5.51395570950695    8.81767607631559    8.57666964492862
C         3.46970073605703    9.11369365501779    9.20971285903336
H         2.64417874507616    9.79401769487668    9.01543498901803
H         3.69691411201872    9.12428339745148   10.27210268078294
H         3.17226768726071    8.10761098633709    8.92358453791783
C         5.16515320843721   10.94061511171114    8.80972667594718
H         6.03420005134173   11.22773245661547    8.22257743209792
H         5.43170655195875   10.95641026385713    9.86285144998236
H         4.37055693574334   11.66136261917139    8.63279569916689
C         3.92736180804538    9.68418709508246    4.05270938447238
H         4.09921364444862    9.40812206624748    3.00499808668882
C         2.43985095729772    9.56033128552629    4.37020810952959
H         2.06649668290609    8.57794128901612    4.08842573389919
H         1.88249482376740   10.30891149114827    3.81403724378220
H         2.28147075074276    9.71816251446956    5.43423499372606
C         4.42331861859959   11.10619500688496    4.29668310406604
H         4.26526857435516   11.37764961045674    5.33710981791009
H         3.88127312738488   11.79946965638360    3.65941969804415
H         5.48504919482470   11.18529839509814    4.06846168681010
C         4.97953765086310    6.01905277220407    3.91279368687466
C         4.39839335582269    5.41068670234308    5.17039551360443
C         4.84772438878672    4.19629093235433    5.67719243218359
H         5.61164721090839    3.63964028310877    5.15640422459513
C         4.32061292753649    3.67943405232497    6.84803459630612
H         4.68751711549583    2.73508689582469    7.22189072556810
C         3.33452827368097    4.36248040456481    7.53622990857231
H         2.92955694063012    3.96040209501376    8.45271993340338
C         2.86662497961445    5.56365727300945    7.03289000900342
H         2.08669476599503    6.10413658048347    7.54958423290561
C         3.38963600153713    6.08001487028000    5.86255118055888
H         2.99992003556231    7.01123733892324    5.48275687064561
C         6.05703471048301    5.15607780762875    3.29721581049684
C         5.85687449036625    4.42508404123636    2.13395907947727
H         4.90059944371646    4.45796633272125    1.63300362332966
C         6.87909887397982    3.65042323842354    1.61244848158179
H         6.71198346342623    3.09101862460958    0.70426800945925
C         8.10862579232541    3.59216313342129    2.24541208112425
H         8.90444273382936    2.99244324653769    1.83052336883757
C         8.31180599014583    4.30074895244736    3.41779248012652
H         9.26183550288935    4.24942229012598    3.92853660123867
C         7.29221830086564    5.07757826335730    3.93727036080420
H         7.43116504559252    5.58682820533196    4.88633375999383
C         3.93198768871627    6.39733754552110    2.89013710820762
C         4.31045371662663    7.18013403368245    1.80211590331593
H         5.34555015567695    7.48366687853328    1.70110065730864
C         3.39439913305605    7.54575706748641    0.83315624227170
H         3.71085492527911    8.16076608287424    0.00385617680957
C         2.08037663294977    7.11881689201828    0.92565754181611
H         1.36121486882369    7.40397591843043    0.17292799043397
C         1.70245846081815    6.30639244696860    1.98008073533647
H         0.68679707190202    5.94535574435314    2.04805527608510
C         2.61930470080616    5.94370499024062    2.95276345545430
H         2.30798168358553    5.29361306739902    3.75653155244999
C         9.40009913791475    9.46409985297569    2.24219527713552
C         7.91585051309531    7.19014201734341    1.70179390056676
C         9.11876046738503    7.55436022688568    4.25233688322482
C         7.84375013662116    9.98625663706595    4.56189956411238
C         6.66291104137605    9.70402882293155    1.94471215403040

