63
CSD_code = ISOKEI | q = 0 | S = 0 | Stoichiometry = C30H26Cl3NPRhS | MND = 6
Rh       11.10594933991904    4.76903491780382    2.34481344009349
Cl        9.32429894227338    3.42332876260289    1.58538391175717
Cl        9.64308303973677    6.49470065698765    2.60341954761052
Cl       12.99373217169642    6.06798510397266    2.72587364989640
N        11.34780099918603    5.13698414345866    0.20421144952336
H        10.48777329590771    4.63422585633522   -0.06696166600129
H        11.24563551794772    6.11541337326008   -0.07349629009690
C        12.50167724254071    4.54151321294363   -0.37583837322812
C        12.99494571597246    4.96320791092230   -1.60642985944451
H        12.51131886204539    5.78389995927875   -2.11668450265626
C        14.09364358159120    4.34278290899717   -2.17195611666565
H        14.46630037604632    4.68340404574898   -3.12570006328577
C        14.71366924995803    3.28829830780109   -1.52038501689488
H        15.56828236860656    2.80229676948305   -1.96396702948407
C        14.25142022479531    2.87652413425422   -0.28405641908473
H        14.74039843430026    2.07880339804405    0.25364800791625
C        13.15424514423730    3.50290773922161    0.28588722772438
S        12.68517114986690    3.05316744250164    1.95331697507282
C        11.83212437080300    1.50891568708853    1.70524563708003
C        11.33827722137912    1.11130578174917    0.47430676239038
H        11.47511359050537    1.73139992353241   -0.39872685121130
C        10.65079414279391   -0.08512312166989    0.37664694364503
H        10.25626810145514   -0.39254466404796   -0.57997700239340
C        10.45389501644430   -0.87483289450540    1.49663590662178
H         9.90484259058222   -1.80064530776980    1.41466575069701
C        10.95836216796426   -0.47368719341066    2.72293314757977
H        10.80849025821308   -1.08533672568445    3.60023806784357
C        11.65508391108615    0.71549506939610    2.83028913711259
H        12.05393640922404    1.04083397008984    3.77991851032260
P        10.63450297643345    4.50196484663382    4.53384395257119
C         8.95099220547267    3.87655044253760    4.76573160496542
C         8.67079887978167    2.55060686595916    4.44132201371804
H         9.46617914727328    1.90068507195579    4.09973119217964
C         7.37504681838686    2.07890189931567    4.52748518217845
H         7.16015419390665    1.05170305827753    4.27080395113507
C         6.35219657029054    2.92811030264098    4.91987643118561
H         5.33853861107251    2.55919847001788    4.97702187932406
C         6.62490057071552    4.25276883405544    5.21802240682929
H         5.82430418644811    4.91948088382741    5.50266995704777
C         7.92020003722813    4.73216532305806    5.13614946215916
H         8.13449917168933    5.77129204303887    5.34243598473473
C        11.72272402073601    3.30608846099876    5.38640003189183
C        13.09257038033383    3.47646660446036    5.19823129766169
H        13.44332782070808    4.27111367303280    4.55302235637671
C        13.99236376977526    2.64108456231628    5.83328213451568
H        15.05243841004385    2.77705761981998    5.67963513577152
C        13.53317307345323    1.63181096328101    6.66484768671869
H        14.23398350020850    0.97334116097475    7.15655384558472
C        12.17301050417351    1.47236612871050    6.87085324101880
H        11.81292627472159    0.69387722802082    7.52792770797259
C        11.26680131072769    2.30764698399636    6.23973181072206
H        10.20777467905921    2.17527090372384    6.40997761253765
C        10.76154122829782    5.88426636304110    5.71150519483130
C        10.39922946535415    5.60923810678282    7.02953075900798
H        10.04319543305945    4.62254990138226    7.29485877585758
C        10.48775220499654    6.59559985503725    7.99162554365059
H        10.20081017752939    6.37985606455376    9.01061792624263
C        10.94528000783162    7.85908376460498    7.64918931271056
H        11.01373245354646    8.62935429300213    8.40343727840190
C        11.31409259703068    8.12970081377313    6.34348622624529
H        11.67316867213160    9.11182130448279    6.07475455203499
C        11.22568168508720    7.14627479558542    5.37211862321357
H        11.51257552545123    7.36074323875545    4.35516404664478

