61
CSD_code = ISOKEH | q = 1 | S = 0 | Stoichiometry = C24H30AgN4O2(1+) | MND = 2
Ag        6.55606355024269    5.14771521948980    3.78173650899533
N         5.69006606976434    4.67696397204942    0.71325902944098
N         5.46718207942344    6.73269977144417    1.35029641471762
N         8.39339055936801    4.83550432539358    6.26839617789654
N         7.08509115515586    3.11151198468196    6.27628869777471
C         4.88863253043760    2.44926078936409    1.32370930218984
H         4.69365983165860    2.78039393935973    2.34424483668371
H         5.16154857260123    1.39853689796278    1.34130471202108
H         3.97882914423237    2.56421226868321    0.73925651426587
C         6.02447325311562    3.27513824721634    0.72569359371209
H         6.92870467703774    3.15327971621740    1.33219641863675
H         6.23396013934845    2.95488785396094   -0.29738307587759
C         4.97280542091648    5.30686808617744   -0.27899166090250
C         4.44235752312178    4.86429135092809   -1.48327528174729
H         4.55067846006805    3.84217907049435   -1.80891154000415
C         3.76388770947831    5.79002210990163   -2.25010305249988
H         3.33642221269561    5.48455677343668   -3.19195873074714
C         3.61372688958191    7.11464414351280   -1.83694918248541
H         3.07425217618527    7.80227074959264   -2.46891659505850
C         4.13768273542616    7.56448528877624   -0.64159232235066
H         4.01416680226972    8.58993339699123   -0.33082358347048
C         4.82317749146121    6.64103553399232    0.13582962043952
C         5.98400367377421    5.53781068957334    1.70692493535777
C         5.48901785226179    7.90125131518385    2.18527385756464
H         5.44977709235611    8.79349869184117    1.55741271093152
H         6.41875716347862    7.89869218149496    2.76158422832485
C         4.29885335385413    7.88987641216187    3.15687079715751
H         4.18419040554162    8.87721348758667    3.61236426133406
H         3.38318466192675    7.65173575324166    2.60067731299427
O         4.46473940355601    6.89279461731457    4.14994197522607
C         4.55700941789096    7.35296229359906    5.47656492958162
H         4.46486257676830    6.45215266068581    6.08722404584862
H         3.73001174604824    8.03536964332921    5.71033361448019
C         5.88715838679670    8.04124763342201    5.80639290699524
H         5.99453953881829    8.98415262503137    5.25103668091184
H         5.90038564233195    8.26778214394797    6.87907079226063
O         6.93599716199369    7.16267735488012    5.46574489438964
C         8.11103250878950    7.26614504398469    6.23526675509520
H         7.86691783108819    7.23747647012823    7.30745752309327
H         8.63798171882036    8.20599078766744    6.01804036564978
C         8.99898401007177    6.07535754509316    5.86540777335401
H         9.12316928158591    6.06354978135447    4.77675019315480
H         9.97498000435274    6.17593229804137    6.34179235781925
C         8.63903877594832    4.17931878659958    7.45543023394896
C         9.49323343417866    4.43781423693153    8.51838039314160
H        10.13780887413560    5.30251430590948    8.53342958456834
C         9.48504620223708    3.53754653328757    9.56527313947974
H        10.13637050772663    3.70336932407419   10.40875726973280
C         8.65427185985781    2.41640328862948    9.56090921719971
H         8.68332238385492    1.74061675622488   10.40085726312141
C         7.79861292432265    2.15292997438618    8.51009058244665
H         7.15966589411238    1.28451250463998    8.51491428265417
C         7.79942806587265    3.05262817139689    7.45296001768316
C         7.44467974128020    4.18909639686421    5.55468651873498
C         6.14531679642527    2.11129801655894    5.83438242127631
H         5.47957787598680    2.58295713184080    5.10193599958653
H         5.55271319312682    1.78265901610872    6.69180230755679
C         6.86328498427507    0.92553687753686    5.19636208119720
H         7.43232134957277    1.25776025023998    4.33076728311779
H         6.13890233591428    0.18284323898244    4.87573513416664
H         7.54519238549430    0.46243427059834    5.90538655718471

