120
CSD_code = ISOLEJ | q = 0 | S = 0 | Stoichiometry = C52H58CoN3O4S2 | MND = 5
Co        6.36566889843415   11.57023622971652   10.50609258523930
O         6.06860238484313    9.82906736593385   10.84888706348168
C         4.82936500346955    9.52666807188509   11.07483303488215
C         4.35456752859728    8.27603248800768   11.54439860713721
C         2.99754654314956    8.15653055250621   11.71909902287086
H         2.60948152966356    7.22316430667120   12.08868133026516
C         2.06562541688059    9.18542069806563   11.45203786735835
C         2.52466756895820   10.40054503334584   11.01073481105973
H         1.86160932078422   11.22041381504750   10.79211262038851
C         3.90373471586849   10.58782574947980   10.83125189238642
N         4.52265002400993   11.69261042523286   10.37254960251711
C         3.81219613010717   12.88184729295111   10.19057221698861
C         3.16641779090356   13.48018287576787   11.27371824773112
H         3.20264650937551   12.97694949592947   12.22924751171703
C         2.54671567561706   14.70691708095966   11.13991667929596
H         2.06481813710670   15.15787503954020   11.99412311687856
C         2.55736533624516   15.36057670479628    9.91747682240080
H         2.08271883540571   16.32409102238758    9.81103161728759
C         3.17387050268084   14.77281603574554    8.82914600427572
H         3.18554962055691   15.26403121355828    7.86815874703863
C         3.79175031412080   13.53687716498249    8.95316721059120
S         4.58852085665789   12.85038269842347    7.52173608429495
C         4.12889276368028   11.13782898518297    7.68018795917794
C         2.79597748863708   10.78757524717749    7.83235536569800
H         2.03673048910862   11.55599966303903    7.85842436962111
C         2.45647379221939    9.45399541280206    7.96556646001806
H         1.41937932431948    9.17935849056951    8.08874295832541
C         3.43705339465966    8.47698184540891    7.93441444584712
H         3.16530577473056    7.43824749836790    8.04864867894306
C         4.76301110248593    8.83286815262666    7.74983787743381
H         5.53148562185807    8.07645428461071    7.71500568303289
C         5.11453316496216   10.16360835447532    7.61943088249505
H         6.14530179778053   10.45340552829555    7.47376995037734
C         0.59109865817183    8.90420881529235   11.69299364207687
C         0.38015805765564    8.64047100741672   13.19102729440311
H         0.94753144711476    7.77613506406880   13.52446074807704
H        -0.67291204351104    8.45794124921266   13.39446233062906
H         0.70152220583513    9.50218948694814   13.77157061084932
C         0.15961999319559    7.67222502180307   10.88458283311926
H         0.35264051837445    7.82922915720385    9.82598664393017
H        -0.90528731093609    7.49414342274019   11.01862971896291
H         0.69223204591242    6.77926640850454   11.19805661948064
C        -0.30207666804626   10.07787712117351   11.28172552855605
H        -0.07982141305789   10.96419585437957   11.87067163534611
H        -1.34511363296049    9.81711674561624   11.44947140378664
H        -0.17765575189827   10.31207192508909   10.22706857981160
C         5.34100439156218    7.16036525373517   11.84498224117839
C         4.66438408857088    5.90764474906468   12.40793921947716
H         4.15226523090937    6.12551347242952   13.34230704435775
H         5.42136854417185    5.15218524561834   12.60810775643725
H         3.95439542552068    5.48927532274030   11.69779076031885
C         6.35891431978627    7.66499579606709   12.87713322493454
H         6.91660947145162    8.50920649699995   12.48404162887885
H         7.06351969239718    6.87431591331945   13.12697273156178
H         5.85019434435297    7.98108674821383   13.78523759601406
C         6.06477065642069    6.78227642359367   10.54726296508541
H         5.35600088281480    6.38798699286759    9.82154834631766
H         6.81967960894262    6.02409175027681   10.74581310308757
H         6.55017793475394    7.65458063351277   10.12338595371961
O         6.67434521425843   13.25972101913175    9.94597091132323
C         7.92281093880817   13.60419668944684    9.92822899372778
C         8.42699607020279   14.91398405322223    9.71898478364736
C         9.79243168826122   15.06317340934388    9.75490822122219
H        10.20247766374129   16.04722160525296    9.60774272336535
C        10.70809772123519   14.00872029647652    9.97792741898377
C        10.22287934686290   12.74363738197581   10.19317671919300
H        10.86882290484898   11.90000403713156   10.37078189293607
C         8.83582488042150   12.53364541078102   10.18348244073993
N         8.19616947762324   11.36317512390533   10.37522931473226
C         8.91154025705623   10.26215225043126   10.86065379900855
C         9.48587853037761   10.30763761803742   12.13173272320733
H         9.39374320021242   11.21943360196742   12.70383789976774
C        10.12974462662095    9.20237082851707   12.65117566507509
H        10.56200608383616    9.24994458372722   13.63900398043162
C        10.20815552209388    8.03210090757351   11.91113637999735
H        10.69509258144308    7.16029955722995   12.32099439401074
C         9.65629649594225    7.97496282401559   10.64607926801209
H         9.71615152713465    7.06688486808968   10.06440984366697
C         9.02807491960793    9.08953849300347   10.10920301106440
S         8.32467957724064    9.04994477840338    8.48348148721342
C         9.52352197917922    8.07738006948029    7.59801770426286
C         9.06721608840153    7.18564023589111    6.63675348202326
H         8.00569244306713    7.07500246536736    6.47570580129727
C         9.97427992066975    6.44931590207676    5.89684309902851
H         9.61694835953550    5.75383648323890    5.15205571299269
C        11.33393527879022    6.59736872949484    6.11484921456679
H        12.04104913439908    6.01708707944117    5.54151730761359
C        11.78534893806189    7.49648777808582    7.06767747325176
H        12.84491306615644    7.62355219555422    7.23394472002654
C        10.88629426235635    8.24498067800306    7.80390580335544
H        11.23907332945628    8.95282918793349    8.53958563095691
C         7.46817958972509   16.06611617394640    9.47268630552855
C         6.45006083537482   16.12774177338630   10.61940045268924
H         5.86275958026058   15.21612481958518   10.66200283853455
H         5.77173067946659   16.96562190623224   10.47237232038306
H         6.96154166780232   16.25364830953238   11.57129282036142
C         6.74258688864758   15.81577087603495    8.14519814922290
H         7.45358804948795   15.79740025160480    7.32147423585133
H         6.01583836864652   16.60371363637658    7.96054576852323
H         6.22143420160636   14.86488141100206    8.17127714058758
C         8.17963262831744   17.41966578738297    9.39097018625173
H         8.71734275696245   17.63536444336517   10.31152680521570
H         7.43934751654404   18.20288179103788    9.24221181228313
H         8.87208249310711   17.45322868957672    8.55275036211578
C        12.19366684224542   14.33016389204931    9.98395747909988
C        13.05946754518709   13.08997673153901   10.22280343440177
H        12.84106594187593   12.64074794413820   11.18867120578363
H        14.10991368496624   13.37365094346702   10.21369533835742
H        12.90473565532663   12.34958194399051    9.44138120857305
C        12.58776542734266   14.93288396158837    8.62788423689739
H        13.65506857814407   15.14307777930136    8.60966374395621
H        12.05658242594433   15.86000005481491    8.43311516693728
H        12.35926135596628   14.23411684375070    7.82600095352311
C        12.48108287753548   15.33713433577443   11.10684232661228
H        12.17291907967252   14.92627249059332   12.06565268713111
H        11.94902374506500   16.27103569231839   10.95052246448300
H        13.54612657015504   15.55519475605916   11.14918266577643
N         6.40313584516316   12.02976792571681   12.22127298958997
O         5.54269633371693   11.56072808315029   12.93331316052825
O         7.28801675238757   12.77429570907446   12.58074643253777

