59
CSD_code = ISONIN | q = 0 | S = 0 | Stoichiometry = C21H30N2O4RuS | MND = 9
Ru        8.00139291921202    0.66150137054273    4.42162256772227
S         7.64341001229418    3.09825806953191    2.41552418840527
O         9.94369612486955    0.70260096660476    3.51081554429632
O         9.97677358586248   -1.15137713514469    2.27816669902450
O         7.55160385715868    3.83227847413544    3.65399413153009
O         6.82647910928448    3.54903308344499    1.31347203732416
N         7.48440557422679   -1.02537302695608    3.20414123592697
N         7.26271230665496    1.55922468615992    2.74109744329041
C         6.60921447156843   -0.62692348927831    2.09747376290989
C         7.17070611923665    0.69871102428832    1.58858679595934
C        10.51013376051653   -0.14768999124709    2.76903584912878
C        11.98699101222768    0.10934436471515    2.48406395903298
C         9.35310515103500    3.16498247674478    1.87941013460047
C         9.67821323132991    2.87071988104703    0.56999116097234
C        11.00119378711262    2.92958829296350    0.16790877803927
C        12.00053864624984    3.29281147406160    1.06467064408006
C        11.64926679666777    3.59172673208699    2.37666092904365
C        10.32964785026925    3.52330073614880    2.78579881043491
C        13.43203343353951    3.34389951002325    0.62218767193461
C         8.40806642184081   -0.19125564604879    6.49943528052735
C         9.11792948794386    1.02012949194368    6.38787514232458
C         8.40178240435419    2.20509786469280    6.07639125637501
C         7.01788012608350    2.17368977417107    5.85517176386055
C         6.29761379989032    0.95902679679538    5.89230798947848
C         7.02267790117201   -0.22224168714823    6.20261432078762
C        10.59323553669837    1.08536582377404    6.64437413770315
C         4.79664086713943    0.92408699811565    5.72817959494151
C         4.33459788600065    1.82068112302440    4.57708993547574
C         4.13053740193117    1.33617494515815    7.04643359649991
H         7.11188314901193   -1.84572078507210    3.68206393123246
H         8.42617556948892   -1.26972164358057    2.78991878199704
H         5.59314186330274   -0.47216050271269    2.47374600459956
H         6.59976738680566   -1.38326581326272    1.30381513971373
H         6.51789703370809    1.16980878205279    0.84534088879935
H         8.15984361426679    0.51439505197761    1.13332331824147
H        12.32158583455214    1.00704137732333    2.99309074744743
H        12.56263108721381   -0.75322567220050    2.81136467794265
H        12.11734010047415    0.22225100889771    1.41110010281447
H        12.41708931994699    3.88574029972148    3.07915524214109
H        10.03148363466307    3.76045974210931    3.79410062758615
H         8.88997897106239    2.62728469264280   -0.12503167796407
H        11.26299374503527    2.70081909242187   -0.85549786886767
H        14.02832149304252    3.94860773942512    1.30076724237169
H        13.85370100556942    2.33845116111361    0.60341416840947
H        13.51108150873838    3.75727773048482   -0.38078812149536
H         8.91105460957461   -1.09004189183607    6.84082223473473
H        10.95548148768067    0.16893918121567    7.10555209757694
H        10.83545039202325    1.93095471795021    7.28631225590316
H        11.11106950776783    1.22214998803425    5.69347757930089
H         8.91512438509914    3.15816475056915    6.07029316158201
H         6.50417546964177    3.10456391332714    5.66117733073211
H         6.47739816307209   -1.15538215654843    6.33314421461138
H         4.50317639949537   -0.10960728740900    5.50507718954211
H         4.34777229105690    2.86687976019495    4.86949499835753
H         4.99677880074992    1.70802938754935    3.71934221788786
H         3.31896594615165    1.56342469994945    4.28527312863032
H         4.41599465669412    2.35154264407007    7.31121741448072
H         3.04860903566706    1.29603492580187    6.94700080440184
H         4.42955395609115    0.67193212142756    7.85523680563739

