85
CSD_code = ISOQOW | q = 0 | S = 0 | Stoichiometry = C40H37Cl2NO2P2Ru | MND = 6
Ru       12.81041019288005   14.46149645206832    8.84516582447474
Cl       13.21970291162837   14.35414283928927   11.17699256233101
Cl       11.77810522196580   14.54817255987258    6.68888251895788
P        12.71008349535020   12.14551451726696    8.75187264445392
P        12.63161931572063   16.76929401404786    8.99313587220007
C        13.01843400667857   11.32866762253263    7.15039477907151
C        12.52306506514450   10.05823205020084    6.87105949245878
H        11.88878761423726    9.55173626308775    7.58499162390502
C        12.82565209824311    9.44536343430903    5.66971309780602
H        12.43226764532068    8.46171160978500    5.45651555435382
C        13.62735294382656   10.08871099483920    4.74065718822049
H        13.85766465095657    9.60719196140601    3.80158312811589
C        14.12722641699569   11.34985734403323    5.01618994205448
H        14.74846940195344   11.85694532617841    4.29308020360449
C        13.82671390846068   11.96673780496647    6.21719479339133
H        14.20022472495041   12.95973400332603    6.42816161188204
C        13.82447439643726   11.16225664170916    9.80644371056176
C        13.53988149400032    9.83804418560649   10.12794688570742
H        12.61210886492828    9.38661379837317    9.80540010891525
C        14.43679569158154    9.09977976717667   10.87653066292250
H        14.20774417928612    8.07418955351302   11.12850448532189
C        15.62441863054216    9.67145312596784   11.30452301945987
H        16.32072682800675    9.09103463953110   11.89198282684059
C        15.91338157507487   10.98647056976396   10.98289830812748
H        16.83502951747753   11.43707529108710   11.31951098890318
C        15.01874037377078   11.72992837735327   10.23394333329706
H        15.22996590608826   12.76453477728231    9.99989188151205
C        11.05751344608104   11.55401370260571    9.20820631703752
C        10.05477873016990   11.48899271695162    8.24353315818037
H        10.29008474295597   11.72746555868711    7.21425171427590
C         8.77047522839715   11.12635656997229    8.60670173382405
H         7.99625776691211   11.06526937352301    7.85488867181698
C         8.47763731805830   10.83874188684644    9.93072605311660
H         7.47628096354595   10.54161599648337   10.21005007759825
C         9.46531480077817   10.94067110124554   10.89815912388208
H         9.23260354825151   10.73432810617413   11.93326198393230
C        10.75005328435994   11.31011441804895   10.54386032332478
H        11.52049921994804   11.41728697284712   11.29566372410857
C        12.96017857185610   17.76545287092241    7.50111525148064
C        13.74683680488010   17.23399462187673    6.48674516554669
H        14.09821720792374   16.21397340478427    6.56421986043589
C        14.05315442555533   17.99374771799828    5.37172367086284
H        14.65794061085655   17.57018225460426    4.58382314238784
C        13.58100902163917   19.29047857639281    5.26498802118360
H        13.81701131356465   19.88360919049470    4.39361109845098
C        12.80009245207604   19.82724657624482    6.27629225264168
H        12.42860469681950   20.83869355434787    6.19454164806876
C        12.49179760721012   19.07194560787120    7.39159932870449
H        11.87583717360078   19.49517322752630    8.17255338134308
C        13.67846332653391   17.66547281610265   10.18559768071161
C        14.91341730905578   17.12151952788886   10.51935967673398
H        15.18962183940238   16.15142980550770   10.12876876262358
C        15.76656371053698   17.80043315251522   11.37032529656764
H        16.72004441981449   17.36682227984557   11.63233899932045
C        15.39525938078985   19.02898662900954   11.88947366695035
H        16.05867933298099   19.55866866497304   12.55739880451889
C        14.16747591225610   19.57753180323760   11.55606093101000
H        13.87389818323386   20.53503292798652   11.96208498893315
C        13.31141411217012   18.90314339588050   10.70564255644827
H        12.35155814428385   19.33587761109656   10.46032484775100
C        10.94531895478752   17.25623018038581    9.45003566123194
C         9.97890902923703   17.43096206455829    8.46272557456478
H        10.25928897904496   17.34198587441280    7.42125342609131
C         8.67178540747514   17.71033138160678    8.81880362560761
H         7.92494210226307   17.85550840990300    8.05115504506685
C         8.32103589663098   17.80766455445359   10.15617515704014
H         7.30209688985564   18.04190055463378   10.43161786776232
C         9.27377986860225   17.59661165004433   11.14092081017578
H         8.99706658986047   17.65661840802118   12.18410725873001
C        10.58029299125946   17.30671203180243   10.79294303024897
H        11.32440200807364   17.11270593817303   11.55412244458248
O        15.66886768415685   14.55547029610574    8.01130364009471
C        14.55879109759744   14.51943842082375    8.32480591810468
O        10.74378362676167   14.38655147185183    9.57639529010051
N         8.50589854229309   14.35060668202617    9.74957146127711
C         9.63760432498009   14.40756295394914    9.05385807320279
H         9.50009670928051   14.47679810834631    7.96562936568898
C         8.52710594472396   14.25470539083511   11.19079805117190
H         9.56417644045308   14.25427196782285   11.52146130905107
H         8.04365124953739   13.33051796752867   11.51169835510350
H         8.00541866729845   15.10638247641229   11.62996738980511
C         7.21310520102615   14.37250376128596    9.12199167947601
H         7.32675888986933   14.44382831272658    8.04260183564270
H         6.63877050088940   15.23153121093321    9.47715704738623
H         6.66393072606607   13.45913778629876    9.36334172018633

