42
CSD_code = ISORAL | q = 0 | S = 0 | Stoichiometry = C17H20Cl2HgN2 | MND = 4
Hg       -0.08926872200281    6.95414293066621    5.34763188398271
Cl       -1.89857619999338    5.69521274833484    5.97982655931415
Cl        0.91911151458388    8.99654553492767    5.38347259917596
N         1.47406131088264    5.34314998076462    6.48094117778246
N         1.21725154282210    5.54102056408708    3.78940895263197
C         1.93394100866875    4.35557890504639    5.70473346730797
C         2.38561694447639    3.15520573357855    6.25016506995783
H         2.74123174713121    2.35838235072590    5.61769976143598
C         2.35382799000317    2.98390653176925    7.62442853670119
H         2.68734881128706    2.05635300181398    8.06533228296631
C         1.88986414864683    4.01942585585994    8.41702991916935
H         1.85522032870284    3.93244840064253    9.49094679809098
C         1.45852500280479    5.18129929213182    7.79284912065372
H         1.09053162260431    6.01970724954441    8.36973076612336
C         1.95348101812094    4.61100064441147    4.24830464550413
C         2.84550576021123    3.75353757898775    3.40086984085142
H         2.83665874982919    4.10472455662604    2.37155186934855
H         2.50136594711779    2.72028945210011    3.41554847472710
H         3.86421036155285    3.77489853258686    3.78442269676027
C         1.19671828333388    5.91303371037243    2.43145695941884
C         2.20685955108646    6.75375526091859    1.93625254267114
C         2.13230153785087    7.15105597811989    0.61069697794884
H         2.89131953929798    7.79762745014229    0.20237079248786
C         1.09123714449938    6.73666250184606   -0.20251102101986
H         1.05602965431824    7.05487218466607   -1.23351852415996
C         0.09028033276124    5.93523954104626    0.30930568167012
H        -0.73493660243481    5.63009611498096   -0.31712360230837
C         0.11980820809815    5.51958235208688    1.63351134931182
C         3.29196256932817    7.21862258304026    2.87362275860237
H         3.89416750315958    6.35834229131964    3.18450204747811
H         2.80825409209037    7.61098045796935    3.77522513750685
C         4.21953262585815    8.28823973384728    2.31200638098774
H         4.91959692244345    8.59806779908055    3.08439417419508
H         3.65256478970755    9.16168650129830    2.00077336147832
H         4.79246642517540    7.91292074205555    1.46618204590215
C        -0.97768895980317    4.64647261367263    2.17522059780051
H        -1.90171637401744    4.87038285344256    1.63893040072665
H        -1.14023203183016    4.86178815745690    3.23579870531973
C        -0.65888615810851    3.16029423633791    2.00748497399581
H        -1.49775820602873    2.55842057517560    2.34766146729481
H         0.21648440184166    2.88578744243109    2.59036340426420
H        -0.46497413607642    2.92933907408184    0.96169896593733

