30
CSD_code = ISORUF | q = 0 | S = 0 | Stoichiometry = C13H12Cl2HgN2 | MND = 4
Hg       -3.08140570490480    2.95376801299502  -10.26946368999217
Cl       -1.04789242604844    1.89467834720290  -10.19422708250299
Cl       -5.17807324049457    3.15755506117569  -11.13289232493143
N        -2.16292511508706    5.22004479001763   -9.71777735671959
N        -3.31477402352642    3.53430096224934   -7.83686274232622
C        -2.01256408762153    5.45577637664561   -8.40818732345399
C        -1.24796070277248    6.52645635502099   -7.94000318850779
H        -1.13972369902598    6.68619841044119   -6.87802947808077
C        -0.63146607092561    7.36510516290352   -8.85131171473929
H        -0.03076036221723    8.19624337292117   -8.51385099392165
C        -0.80375274398565    7.11669059986771  -10.20349955526528
H        -0.34854840850467    7.74681393744841  -10.95053612033992
C        -1.57759459487159    6.02833311396929  -10.58434544478511
H        -1.73767266470874    5.80074066202005  -11.63057795123256
C        -2.67480579359901    4.57118011254274   -7.46230341998968
H        -2.57432153790380    4.84532374348059   -6.40884322785656
C        -3.99731374696354    2.71674926265144   -6.95159441330623
C        -4.14627705051520    1.36959627230002   -7.28979431079010
H        -3.69589786894540    1.00742296580507   -8.20930862998453
C        -4.82480690456521    0.50835408565458   -6.45443895835289
H        -4.91830853336285   -0.53271935569870   -6.72595123130389
C        -5.40259089034745    0.96556514967564   -5.27370317201126
C        -5.27887537443109    2.31574891687309   -4.95395455482860
H        -5.74327387101537    2.69064407570111   -4.05287647054914
C        -4.58342793803997    3.18263038157855   -5.76933938681382
H        -4.53585190920403    4.23234650182390   -5.51889645510100
C        -6.14512492126458    0.04041433797784   -4.36392464536903
H        -6.30708588856674   -0.92496628449920   -4.83520193687812
H        -7.10859688216638    0.46548605245678   -4.08873377794315
H        -5.57762704441595   -0.11458138320956   -3.44617044211635

