30
CSD_code = ISOROZ | q = 0 | S = 0 | Stoichiometry = C13H12Cl2HgN2 | MND = 4
Hg        6.25377777084052    3.39537173533602    1.31993781017923
Cl        7.53558275935993    1.63959106001768    2.04346372617761
Cl        6.06102822531862    5.60731182945676    0.79526416922758
N         5.01139895370650    2.06915224832058   -0.37527184752587
N         3.77329059305458    3.15632831634677    1.88054430755972
C         3.69990897624463    1.90726845016175   -0.16443853383057
C         2.91554541964421    1.11443868396349   -1.00443486849616
H         1.85961817870293    1.00486389922001   -0.80965904516197
C         3.51245182893535    0.47044999359314   -2.07375251474973
H         2.92837786094069   -0.15086957008012   -2.73584664543537
C         4.87282362442163    0.64047574990937   -2.27619906438583
H         5.38064116011790    0.15922385101155   -3.09625167259310
C         5.57800847046246    1.45222613328616   -1.39766860517109
H         6.64122200449597    1.61158214787280   -1.52052180430953
C         3.09027254276208    2.58864292142667    0.96781455424187
H         1.99677767273135    2.56495351795416    0.99986371453446
C         3.14853704532014    3.88582069289283    2.88597345089194
C         3.64518609317959    3.82711192533342    4.19901634969463
C         3.02594401897359    4.59678238706373    5.17173880006366
H         3.39601465832294    4.55367423253017    6.18544323783521
C         1.95614732548306    5.42254043783148    4.87008748695439
H         1.50092711758168    6.01959639665553    5.64531209635930
C         1.48331210434448    5.49182665675395    3.57024610722019
H         0.66367127246707    6.14862787563138    3.32187853681424
C         2.06964920298454    4.72212363872503    2.58622486444294
H         1.73855524902712    4.80682084998822    1.56180035153597
C         4.80294623124075    2.94799898379262    4.54428659450589
H         4.95717424925965    2.91496259647929    5.61983647009607
H         5.71869830083689    3.34329260374702    4.08408765150627
H         4.65961108923975    1.93380975477887    4.17502432181805

