33
CSD_code = ISOSAM | q = 0 | S = 0 | Stoichiometry = C14H14Cl2HgN2 | MND = 4
Hg        6.53535742816977    0.92264105660199    9.32848740239714
Cl        6.91959566769570   -0.79224416751584    7.87895013481610
Cl        6.51583626375511    1.57840463771962   11.52851617667058
N         4.15272983787236    1.54895656555833    8.98880529501625
N         6.25777152197368    3.28854284257566    8.53520705763414
C         3.94413326978208    2.87123999292354    8.96232148383453
C         2.66701942072222    3.41536979777928    9.10398638572090
H         2.53215685932562    4.48601081392906    9.08181118710932
C         1.58834945429972    2.56523567256757    9.27411758979436
H         0.59069871988819    2.96094208094146    9.39183254093959
C         1.81557434438643    1.19838586158800    9.28898499414303
H         1.00558258249825    0.49830364299622    9.41591641552717
C         3.11853856164533    0.74067106637865    9.14292249747245
H         3.34015084840274   -0.31841417025968    9.14685442688135
C         5.09373324699626    3.74467432329696    8.77002061929666
H         4.88789880492101    4.81686688061421    8.79418344132069
C         7.36008193170047    4.12862615272257    8.38149714325474
C         8.16245656683009    3.92588946950614    7.24510258100692
C         9.28019785389877    4.72213706707872    7.06421267932635
H         9.89219955594503    4.58151520726372    6.18574863704279
C         9.62216757728936    5.68404755963908    7.99930425529109
H        10.50047895893896    6.29395149367400    7.85167526144040
C         8.84620510381709    5.85141009921793    9.13033301534787
H         9.12835867196313    6.58543804489427    9.87076128401022
C         7.70280720667238    5.09231219594731    9.34341529441318
C         7.77702305043708    2.89466605870974    6.23237296599479
H         8.53419836126273    2.81725402219853    5.45692542253724
H         6.82408674551035    3.14600643609444    5.76745207092589
H         7.65956696538590    1.91672279843742    6.70679791445949
C         6.93198875643587    5.27011529066275   10.61778616450550
H         6.46150124801684    4.34022072687527   10.93218419674863
H         6.15973953071874    6.03192347402381   10.50665783149680
H         7.60421508272411    5.59627700509706   11.40805563344822

