47
CSD_code = ISOTER | q = 1 | S = 0 | Stoichiometry = C18H24CuN4(1+) | MND = 4
Cu        6.71493704820652    2.28260660926500   10.99312024035061
N         6.88775015184695    4.05783255646027   11.91609995886641
N         6.26320634486245    0.61945978837394   12.02021374610451
C         8.90932165214815    3.85028547170838   10.70976546145705
H         9.88032664616430    4.25929097870598   10.43261758262436
C         4.60163758999634    0.71557976524929   10.34052783514992
H         3.71425446049337    0.28606805876418    9.87662718674008
N         8.49073827178827    2.72543048830882   10.27983471778179
N         5.15427400740075    1.78047473437882    9.90937704107134
C         8.06685540843172    4.62188053858280   11.59922928292265
C         5.17205100996211    0.04073302119372   11.48733492468358
C         8.44131079052137    5.86745845184990   12.10230347726123
H         9.39304298236893    6.29511697132488   11.82906725053017
C         4.63442888952283   -1.13335926317909   12.01391920240814
H         3.75875073469913   -1.57388326063284   11.56394103951066
C         7.57370983571590    6.53448973475720   12.94866745187074
H         7.83565177399885    7.50002793612339   13.35242100840461
C         5.24299877149117   -1.71385362957532   13.11232782308064
H         4.85066954855476   -2.62329642640412   13.53994477309089
C         6.35988926746480    5.93915795600145   13.26936137130799
H         5.65827703620741    6.42721335302381   13.92581456394783
C         6.36747291968917   -1.10409445064132   13.65464394298685
H         6.86919699248289   -1.52498471166427   14.51052132284639
C         6.06165703180471    4.69882346519921   12.72787909927692
H         5.12841089978178    4.20047720811988   12.95002096668509
C         6.83927573741566    0.06239924372031   13.07417293167636
H         7.71078632484412    0.56732045483152   13.46611857119314
C         9.28451605530295    1.90780978228382    9.41446709727426
H        10.27893538980925    2.34351921098477    9.25456983736591
H         8.76517991037673    1.85085644610013    8.45199538669995
C         4.63405024542355    2.49730460886780    8.78614838287644
H         3.68552018541257    2.06730478302577    8.43997799576824
H         5.36882898571186    2.41793329798495    7.97712841693402
C         9.40774157089394    0.49485845192767    9.99298082963056
H         8.40231499622138    0.12238796461871   10.20647782320042
H         9.86261778256965   -0.15076695008616    9.24159817644395
C         4.45575383686970    3.97742174558178    9.13648801639492
H         5.40080647127453    4.35171217674585    9.53947919175447
H         3.69705662676608    4.06877322607387    9.91626839570807
C        10.24759656612768    0.48068847767552   11.26349729256907
H        11.26122915065167    0.81587425757243   11.05655392155272
H        10.29947293592033   -0.52545445781466   11.67034034267909
H         9.81338023216500    1.13686600632415   12.01520520818637
C         4.04457489355535    4.79167047640354    7.91784572928675
H         4.80227199242701    4.73182263336461    7.14039634095247
H         3.91473056623010    5.83527413771609    8.19056370494198
H         3.10503947841659    4.42668868079576    7.51064513594707

