46
CSD_code = ISOVOB | q = 0 | S = 0 | Stoichiometry = C23H15O6PW | MND = 6
W         6.69442109732737    3.92538318865900    9.86465858881017
P         6.20269528653095    1.47939508253188    7.76607578816092
O         5.42805795938554    2.10550534861616    8.86630365356548
O         8.13512151875019    6.25821376030150   11.34159175042885
O         8.91021412043605    2.09616938879301   11.11256818539689
O         8.47272177363863    4.72997367924914    7.41407588195648
O         4.90627506369368    3.18082276313268   12.33791507518359
O         4.51964645097240    5.97634903198803    8.91422366032129
C         7.60059013472957    5.39942194813887   10.79913911068813
C         8.09303610424196    2.69659914424701   10.58655039195430
C         7.80364816484234    4.37972033576124    8.27512583742002
C         5.55137913144012    3.45414750822205   11.44097347793315
C         5.28932716627037    5.19477256958878    9.22850443839070
C         5.31327324342208    0.02467483940485    7.14516603817446
C         5.91823143091152   -0.89227446952229    6.29531284363211
H         6.95261179211118   -0.76037621685839    6.01038883821806
C         5.19509925773514   -1.97625426211529    5.83395316621228
H         5.66137648989823   -2.69474929717740    5.17614492428973
C         3.87304475161456   -2.14327416240154    6.21784424205426
H         3.31275971273464   -2.99264387665248    5.85619073043461
C         3.27043090340592   -1.22808276518420    7.06540603266937
H         2.24186488501304   -1.36314945244896    7.36522989438070
C         3.98991431766025   -0.14081572447502    7.52856310746337
H         3.54482915704506    0.58322078425151    8.19629215765539
C         6.39766268372511    2.57867216437785    6.33497837153205
C         7.27846847017139    2.33218844333552    5.28963034500992
H         7.90717160166962    1.45366857787218    5.30314185516072
C         7.34986036299934    3.22371988350463    4.23448222439160
H         8.04430209712013    3.04443799973338    3.42698536036735
C         6.53852489845096    4.34720354781822    4.21347674607317
H         6.60944049631951    5.04533195955287    3.39289617044370
C         5.63261485176244    4.57298759619478    5.23734870256979
H         4.98996946752974    5.44026820908981    5.21371638679966
C         5.55764408919389    3.68548384583733    6.29465170304631
H         4.84785318057894    3.83470998774267    7.09822805910487
C         7.81818601741006    0.84584924243480    8.31631083849754
C         9.05515422720149    1.34852832358478    7.93754164840218
H         9.12340704067256    2.16724569086172    7.23658359862357
C        10.20654867261856    0.79726102444770    8.47393135123304
H        11.17041696441449    1.19098693230620    8.18768696757536
C        10.12533574376161   -0.24586128890204    9.38149570484422
H        11.02753227714267   -0.66418444369392    9.80168551040268
C         8.88983552448542   -0.74981451647028    9.75781835474960
H         8.82776128363182   -1.55937233686554   10.46956019185211
C         7.73746171967233   -0.20631495943736    9.22369678497115
H         6.76067841565990   -0.57864502938969    9.50835530895086

