31
CSD_code = ISOWOC | q = 0 | S = 0 | Stoichiometry = C12H13FeNO4 | MND = 7
Fe        5.84741639218023    2.34057261000003    5.71477317092213
N         3.44441668559492    2.57587257080639    4.13698199242919
O         4.56603580124252    0.68306149520041    3.67842389998394
O         7.20085276963407   -0.23808164253280    5.74540007441991
O         6.45175646327193    3.18705655564116    2.99319495988519
O         8.20150516279590    3.39970665236374    7.06976035954659
C         2.38521237950209    2.23809698751395    3.19788568209970
C         4.01657118614545    1.85912182839224    7.13203122501113
C         1.32881889285282    1.32545406776935    3.81121956202978
C         4.37357914070886    3.19303057011196    7.10180884023300
C         4.47052485582041    3.95700013187719    5.89662772975191
C         3.41036368270955    3.86786306033636    4.80251729904714
C         2.06204955219608    4.13274476614201    5.42112946027419
C         1.27491474608181    5.13153283983537    5.06921376054194
C         4.51509675904539    1.75545333129793    4.24867905031918
C         6.63862989656156    0.75356567860021    5.74454950046783
C         6.20390537514383    2.83389855337044    4.05891452243779
C         7.22582250144595    3.00416086532879    6.62058697871472
H         4.08160876067578    1.32442297846631    8.06870392837265
H         3.32720287152811    1.43002816744747    6.41907479021424
H         3.61005448259646    4.64915074931733    4.05070353050715
H         2.85531846644143    1.72136890519136    2.35560999184221
H         4.77333190587632    4.99131553411443    6.04786803547849
H         1.78165098516380    3.45731016606812    6.21705656668967
H         4.78454500594282    3.63816523004075    8.00676047300234
H         0.32770236046769    5.30625744629619    5.54994471523799
H         0.82370511782665    1.81520789821190    4.64031862087663
H         1.54558229763631    5.82129477576499    4.28594767979098
H         1.93220319678736    3.16781509403227    2.84590558963524
H         1.79708771993128    0.41023542293411    4.16466550486746
H         0.58893458619266    1.06631671006004    3.05854250536977

