44
CSD_code = ISOWUI | q = 0 | S = 0 | Stoichiometry = C16H18FeO9 | MND = 7
Fe        1.28337974107314    1.57986078296968    1.82275755555502
O         1.46043328398757    4.84192665565004    3.70472075194511
O        -0.51919733024367    4.92432014678582    2.67277040308124
O        -3.03848225733185    1.45023942186902    5.67298078308327
O        -3.45597373446099    3.49771222018592    6.48194487721758
O         0.03612066537705    2.94132428506737    6.49108545761255
O        -0.49775859441342    5.04653827566438    5.92869327882270
O         0.50728014600447    3.49131018588602   -0.26365561668711
O         2.94811807649840   -0.19326407715525    0.24514857336123
O        -0.59727013413499   -0.61907865405533    1.51876286746498
C         2.96915922052571    2.75497020095388    2.41098249631296
H         3.96654773036503    2.55542442027143    2.03065187004729
H         2.76244577183321    3.81486701680360    2.42515399950836
C         2.57686662069469    1.95924710121654    3.52684131190812
H         3.27148265637273    1.25104614624312    3.96891981891423
C         1.25069641466472    1.96364532822016    3.97952598238340
H         0.96368634719145    1.27920676666159    4.77080698216758
C         0.23692097824438    2.80274557572310    3.38589431896459
C         0.48508197645186    4.26265730210243    3.27700837624752
C        -0.37147214773448    6.33352361035774    2.60370837713458
H        -1.22800416460132    6.70085922720735    2.04418735576538
H         0.55843879189319    6.59570532753094    2.09491043796689
H        -0.35666673916947    6.75948943593644    3.60935743047189
C        -1.20552805077621    2.44309671583880    3.76019966730955
H        -1.20141759087562    1.41723120870448    4.14478652712654
C        -2.18086522047391    2.49503668153981    2.58514284045682
H        -1.83579688186905    1.84576391055559    1.78364334715651
H        -2.26758570142218    3.50388486298169    2.19424653967225
H        -3.16005608407104    2.15264126242728    2.91129832568842
C        -1.73854196372862    3.34632493693704    4.89461869508002
H        -2.16406846565277    4.27226048475745    4.50185205637820
C        -2.80900856507605    2.62630189249608    5.70534104518431
C        -4.45383903720132    2.95568126076058    7.34026349278846
H        -4.95997124780388    3.80489665606177    7.79167187213425
H        -3.99093396337711    2.33279322578005    8.10794336420490
H        -5.15524072951752    2.34674144026398    6.76685120700738
C        -0.62629383568049    3.72488422571980    5.86701988687809
C         0.58259276320248    5.55612061208557    6.70544942641264
H         0.30322676642973    6.56287898698602    7.00658720233859
H         1.48065099005299    5.57536754802732    6.08402332757564
H         0.75309282671397    4.92123105985462    7.57580064685432
C         0.81025372584914    2.74796245297870    0.54739780317315
C         2.30955872027942    0.50058818503278    0.89441149182916
C         0.09613822591526    0.27253568810318    1.70559354549786

