46
CSD_code = ISOWAO | q = 0 | S = 0 | Stoichiometry = C23H15O5PSeW | MND = 6
W        10.82915710647226    2.90178354204996    0.00072762328696
Se        8.69216811850988    1.66139525686524   -1.34948268219747
P         9.63600170143352   -0.24019734804777   -1.27043278445486
O        13.09659080641554    4.39761656659578    1.52423691284367
O        10.17201002220304    1.57363678449558    2.76339896566426
O        13.24141339175573    0.98586876904044   -0.50929696545637
O         8.80029533871381    5.18785057557953    0.72637900566485
O        11.68809832876284    4.40590292318303   -2.61597382344504
C        12.25265196237413    3.86020974836865    0.96330740713141
C        10.36579524668033    2.00006540852299    1.71993847777853
C        12.27307158774271    1.58870253761794   -0.37768103903359
C         9.49734563312770    4.33500193178342    0.43554981629190
C        11.33245989123995    3.84974766203430   -1.68400783198706
C        11.12984340255700   -0.40812540737754   -2.29864019655752
C        11.85074369271510   -1.59735223662877   -2.29532322820188
H        11.53305583956042   -2.42326691201929   -1.67410494498493
C        12.97478562194809   -1.71212816834720   -3.09222872818491
H        13.54697856600841   -2.62790711327102   -3.08196799754530
C        13.36871495676383   -0.65576049431941   -3.89858899539036
H        14.25344691478766   -0.74832595621854   -4.51020860561121
C        12.62776699060715    0.51440396550284   -3.92736211213176
H        12.92681365411863    1.33278065597345   -4.56454113834135
C        11.50466297024441    0.63831246759764   -3.13061353221619
H        10.91571647523800    1.54753788315014   -3.14717668396512
C         8.53658786072146   -1.52043726406795   -1.96188251716731
C         7.70124912081331   -1.17555381843853   -3.01669683427466
H         7.68554335575061   -0.15022363245292   -3.36322907524978
C         6.88881725335550   -2.13285612071912   -3.59517176085993
H         6.23594821661703   -1.86295124480516   -4.41130251869507
C         6.91267002715108   -3.43591226284662   -3.12415438200370
H         6.27716480658951   -4.18384331259523   -3.57397105364716
C         7.74653842451701   -3.78099510186534   -2.07281739210090
H         7.76067012465836   -4.79567420839141   -1.70349882467642
C         8.56187929201942   -2.82766172602380   -1.48974420717350
H         9.20443074231663   -3.09475864435962   -0.66175516093093
C         9.95514764344601   -0.80904936395109    0.42808774008241
C        11.20463896176651   -1.13265526459090    0.93959100614682
H        12.08439323811134   -1.08637102462529    0.31554015690012
C        11.31422996551762   -1.51645357780766    2.26549838203998
H        12.28548892274761   -1.75982371630506    2.66943725449330
C        10.19054540156562   -1.57977647698897    3.07244291036295
H        10.28753755135501   -1.87128427451672    4.10720621158354
C         8.94288238406517   -1.26025900219140    2.55855672902746
H         8.06781883312343   -1.30332434168896    3.18916799162132
C         8.82425759464729   -0.87199992987547    1.23877787565130
H         7.86127205913895   -0.60158873296599    0.82141054991822

