53
CSD_code = ISUCOO | q = 0 | S = 0 | Stoichiometry = C27H18N3NbO4 | MND = 7
Nb        1.46839646379773    4.41330345579446    0.18280125463408
O         3.05034235736358    4.41279561687036   -0.43568143458917
O         1.56162558258551    5.68923558009218    1.81435715089667
O         0.33983528538807    4.41439468007238   -1.59029345171177
N         1.41270806639415    6.71824891486810   -0.59267014982587
N        -0.77721060977348    4.41380941171588    0.80567606547694
C         1.35904739632778    7.18059448921070   -1.81967395517225
C         1.57250419629906    8.53611501664673   -2.11564650333534
C         1.83571291989063    9.41925482859878   -1.10104585026147
C         1.90416265551910    8.95133192228571    0.22739455248616
C         2.17360350326183    9.74921818164442    1.35299582216851
C         2.23070747863647    9.17176114132837    2.59887003720509
C         2.03382855607948    7.80500983696817    2.79605802884147
C         1.76956424779681    6.96225265150440    1.71892743959489
C         1.69268324500760    7.55984554940790    0.41726546539394
C        -1.29045414594339    4.41351432939368    2.01359707098850
C        -2.67523637789802    4.41544329220215    2.24006856681647
C        -3.53484013954382    4.41769281510482    1.17212671822292
C        -3.01598791051039    4.41792971713762   -0.13959730998199
C        -3.79068137777130    4.42015367557611   -1.31312781429068
C        -3.16853950182012    4.42014909312924   -2.53768031968662
C        -1.77915215725275    4.41813207741589   -2.66581983220702
C        -0.95797803495868    4.41608323349553   -1.54043692195328
C        -1.60201935914083    4.41591623229541   -0.25913231614385
H         1.14538020729676    6.46113080393101   -2.60049569538104
H         1.52371513671276    8.86585225764782   -3.14179668993173
H         1.99634644427118   10.46905109749965   -1.30176229848906
H         2.34169641799676   10.80713947383699    1.22246924363147
H         2.44060416960297    9.79046730659473    3.45970714237500
H         2.09834450733221    7.38181092460601    3.78692542662979
H        -0.58369988071324    4.41162348432526    2.83516272249231
H        -3.04526243149249    4.41517968730949    3.25370632757483
H        -4.60598755874276    4.41934198637019    1.31749991696365
H        -4.86702529719914    4.42183937180684   -1.23512802929574
H        -3.76788800092368    4.42182615199961   -3.43678944160588
H        -1.32358029316987    4.41820149033345   -3.64484392881135
O         1.56294808270977    3.13826684897703    1.81487295682988
C         1.77252924583302    1.86550658020819    1.71945826049341
C         2.03977224710087    1.02347653887935    2.79640149323482
C         2.23814508557116   -0.34307371518369    2.59932489586885
C         2.17954525047102   -0.92103598147834    1.35375380131989
C         1.90703469868394   -0.12390643582062    0.22836112930120
C         1.83675975501041   -0.59242562984831   -1.09978277292735
C         1.57061708821409    0.28999857919842   -2.11423505998449
C         1.35626352761347    1.64540137209343   -1.81837974909159
N         1.41165643023721    2.10829475944124   -0.59166197504415
C         1.69425291180148    1.26739143016457    0.41811368654070
H         1.14021165346035    2.36426800021372   -2.59909686162746
H         1.52026523854816   -0.04018579884129   -3.14017318735667
H         1.99828796373295   -1.64210091762246   -1.30039066428097
H         2.34886443664271   -1.97876319368253    1.22326795017437
H         2.45050256726491   -0.96118401219008    3.45998026371892
H         2.10547805640195    1.44712179647447    3.78699882311487

