91
CSD_code = ISUHUA | q = 0 | S = 0 | Stoichiometry = C43H40BrNO2P2RuS | MND = 6
Ru        6.92226386577547    0.53529987007027    5.33980433804432
P         5.26987807821501    2.02997629306591    4.88135328602160
P         5.48259680710630   -0.95997357349747    6.25890381700306
Br        8.70220962569272    2.06605575194779    4.46975126826232
S         5.40058529062025   -0.56782168612123    2.57821862046108
O         7.49501075138670    1.32183057742063    7.26608579051668
O         8.50366452391679   -0.45483576491327    6.51269346139139
N         7.87449022699886   -0.93554761664663    2.92108031005157
C         6.83535013397452   -0.41327993721442    3.58843947415268
C         6.30720137801001   -1.24856375836165    1.25125324587161
C         5.86330823029826   -1.62309643511652   -0.00343334074836
H         4.82215322108090   -1.52584200320208   -0.26545914827945
C         6.79550963771910   -2.11063483891461   -0.90081709903720
H         6.47906546208405   -2.40813670748187   -1.88846824973466
C         8.13622601225691   -2.21042229302692   -0.54603009152662
H         8.84963826598694   -2.58109682481092   -1.26589544058226
C         8.57896759937261   -1.84161533998306    0.70989974096853
H         9.62168189544626   -1.92098534233629    0.96819923893686
C         7.64888906996493   -1.36305433285159    1.62637336957346
C         9.18875324231523   -1.10075964365447    3.51071909687309
H         9.13256722847359   -0.81978741782961    4.56888141263052
H         9.89014049614416   -0.41683412905212    3.02052414371468
C         9.68349650523766   -2.51959830487298    3.43644445464645
C         8.80769195671508   -3.59575011512189    3.46200698016541
H         7.74261266572424   -3.42707840068859    3.52891230016290
C         9.28908626182566   -4.89124261767615    3.40436673654141
H         8.59475680156524   -5.71818934198326    3.41238593204026
C        10.65074758669725   -5.12674090531304    3.33763600449898
H        11.02548916596530   -6.13866270436385    3.29349657536409
C        11.53167035675654   -4.05805345816328    3.32996845937757
H        12.59631487586372   -4.23397159318269    3.28334304958264
C        11.05056906883969   -2.76260029311821    3.37409735991061
H        11.73784469727483   -1.92872058443868    3.36254051220227
C         8.40529157447529    0.47157682469008    7.35769451693442
C         9.40087316881780    0.55421126323677    8.49337396068553
H        10.17361640771185    1.27148887715461    8.22017156930372
H         9.85978649644757   -0.41717641305867    8.65757587355109
H         8.90149100406030    0.90511158362139    9.39303231022422
C         3.51267209909186    1.44647459232099    4.78678179592009
H         2.87730645248273    2.33455014145101    4.86717665744213
H         3.38593806648582    1.04103198699124    3.77702789220751
C         3.08018955510115    0.39785055885738    5.81221742327847
H         1.99646604744485    0.26604839273888    5.72286473208351
H         3.28600125218208    0.74190625536971    6.82898713625666
C         3.75464408779448   -0.95588652563187    5.60922370753080
H         3.77033740217392   -1.19886993812848    4.54477082420051
H         3.20450075046969   -1.73603619876663    6.14682295716123
C         5.26786284335745    3.10754192787740    3.40627623639436
C         4.46206876326674    4.24327081552524    3.38544361285721
H         3.87010589042108    4.49902923241548    4.25417706686496
C         4.43520621846460    5.05417132057210    2.26739137058060
H         3.81216078371525    5.93692626066123    2.25902548951016
C         5.21108221575842    4.74152136147954    1.16213964356395
H         5.19107579417404    5.38053403538695    0.29156648366055
C         6.02050530911511    3.61925070994195    1.18100067337700
H         6.63794123988143    3.38005559754265    0.32803271571071
C         6.04994808687044    2.80562303106456    2.29947242227454
H         6.70529386905101    1.94691048072041    2.32432320562121
C         5.25474927081453    3.29476010972304    6.19460584179422
C         4.25963000358898    3.42837905738857    7.15748794154467
H         3.38084681692284    2.80117885800265    7.13896694436522
C         4.38054647165610    4.38102726427397    8.15467106981506
H         3.60148086912798    4.47396741674556    8.89863599331095
C         5.49053317307403    5.20628744608214    8.20425339826285
H         5.58347686391483    5.94067947765848    8.99124427180466
C         6.47842275734546    5.08834195845895    7.23997719250261
H         7.34498966490751    5.73227665072536    7.26807860707078
C         6.36234456944690    4.14053578935202    6.24201445259444
H         7.13397690616991    4.05450169671510    5.48938835111518
C         5.10137603382690   -0.89693905920533    8.04228834577121
C         5.11439340839388    0.33358953371285    8.69119532845160
H         5.42554281767599    1.22126988215555    8.15657799056456
C         4.75883595537411    0.42198462090911   10.02582861329227
H         4.77755526023325    1.38195010941076   10.52107764552335
C         4.38567590087911   -0.71576468657856   10.72040115230561
H         4.11317500440143   -0.64923100368807   11.76354596218891
C         4.36307028322381   -1.94308693055181   10.07616343975198
H         4.06894928935632   -2.83167577708276   10.61601480650532
C         4.71382741376867   -2.03680271563063    8.74249586452997
H         4.69220833987178   -2.99623475765948    8.24348833920823
C         5.99232760297076   -2.69429089455548    6.04164144168645
C         5.41648659455557   -3.54994916097948    5.10799170734932
H         4.61616874556327   -3.20660995731157    4.46913211071507
C         5.86407736226550   -4.85551300241977    4.99426293300353
H         5.40133279773770   -5.51659380142270    4.27512029210008
C         6.89736008101001   -5.31323943279038    5.79382238191900
H         7.23658919319140   -6.33508212909341    5.70957042299911
C         7.50076245963575   -4.45520090823556    6.69927467185758
H         8.31946354923754   -4.80322718122005    7.31153833277823
C         7.05158023188442   -3.15519601366918    6.82303462551608
H         7.51724794383542   -2.48317516169197    7.53136364161855

