39
CSD_code = ISUHUZ | q = 0 | S = 0 | Stoichiometry = C20H14N2O2Pd | MND = 4
Pd        3.44831225450296    1.87590109868263    7.55418991137255
O         5.21769446760404    2.67952198345596    7.21674996570201
O         3.58487278801353    2.79854511485422    9.29149356148003
N         3.27421326674475    0.96017463506402    5.85025358629034
N         1.71076855880510    1.06363939612394    7.85643624023998
C         2.11934160852226    0.25094352717025    5.68637101836341
C         1.87287754899003   -0.44578837077465    4.49713377412843
C         2.80313034239281   -0.41656774230257    3.48368317409685
C         3.98089947959384    0.31431638262032    3.66908932855953
C         4.17271017298117    0.98180093633855    4.85805933029654
C         1.23483580355503    0.30615425640425    6.82542433042249
C        -0.00555434504418   -0.33566292266668    6.92550164484986
C        -0.75197576331815   -0.20291638539340    8.07378798778030
C        -0.24858973402680    0.57642782227338    9.12016540470855
C         0.97657529932906    1.18637245200585    8.96911999360318
C         5.61486897834579    3.40172026577471    8.25437634474641
C         6.82005968446018    4.07288280593032    8.28826850849282
C         7.18391618473708    4.82614706597804    9.41662329500129
C         8.40994830235367    5.52256984669724    9.48029380958895
C         8.75105174065269    6.25341419558914   10.58310391242212
C         7.87863937016505    6.32457156836386   11.68157870336772
C         6.68395004681458    5.66229374665374   11.65470255979160
C         6.29872914098141    4.89695188881790   10.53310622005924
C         5.07451253034675    4.20958894681309   10.49347354326948
C         4.72397579493539    3.46924641582725    9.38311661341563
H         0.95591593421768   -1.00044866679882    4.38122878131628
H         2.62778228505212   -0.94786277269633    2.56141537919483
H         4.72997626703866    0.35764945839305    2.89571861329352
H         5.06865865729440    1.56260791795020    5.05024547407963
H        -0.36899893691564   -0.93069988905915    6.10347431107062
H        -1.70918852948874   -0.69149885538180    8.16648772487124
H        -0.80735776310079    0.70064229932893   10.03309200343697
H         1.41015435036761    1.80110203994765    9.75082369908802
H         7.48636524205981    4.01745731379938    7.43935731948286
H         9.07858895694323    5.46547459726696    8.63237422794524
H         9.69327907180280    6.78183448503913   10.61879454082925
H         8.16136960201250    6.90723647522571   12.54692930643395
H         6.00933465096987    5.71410847662899   12.49822554058555
H         4.40095668930848    4.25864819005464   11.33703031632253

