51
CSD_code = ISUJAH | q = 0 | S = 0 | Stoichiometry = C28H18N2O2Pd | MND = 4
Pd        6.88422398640045    0.17770858685081   10.57380859577611
O         7.49762573041502    0.15841875719508   12.45862077509673
O         7.91092176138061    1.87182745745462   10.52931667926910
N         5.66635975861853   -1.35849618115574   10.66596303110264
N         6.08011615200737    0.31006143189126    8.79094190385888
C         4.61184020901794   -1.18832002434637    9.83646269002554
C         3.42706306862977   -1.93930909055198    9.99989058424851
C         3.34107653309458   -2.86758735151443   10.99436492088554
C         4.47159400263886   -3.13019124459833   11.80789154626344
C         4.48507243742938   -4.12502728522650   12.79840760759619
C         5.62113912175971   -4.36849120141616   13.52785766512550
C         6.79155364644923   -3.64552265996824   13.27122022510847
C         6.81137987135811   -2.66351646055151   12.31350606101690
C         5.64358791304661   -2.35675517408672   11.58997192457309
C         4.84462574071627   -0.23916478169277    8.77622397296989
C         3.91767890277966    0.08070186585653    7.75986882633260
C         4.27219855314995    0.93716920434692    6.76030295222502
C         5.59782342631130    1.43543696109763    6.70078406256555
C         6.06157047966158    2.25181510398705    5.65708969838724
C         7.36826897507252    2.66865680374108    5.62494744340876
C         8.26323274294323    2.25989901365058    6.62008152886241
C         7.84153848536077    1.46694870986392    7.65712365092572
C         6.49353704900940    1.07081529871192    7.74185809509275
C         8.37423294487530    1.11382227350567   12.70082802301559
C         9.02695463786694    1.26459353073495   13.90756601829731
C         9.92817281082372    2.32471397066985   14.09899268624703
C        10.62787217421447    2.49250252299459   15.31338543557763
C        11.50143643411588    3.52825214227028   15.48861812640559
C        11.72096665916296    4.45098337473256   14.45250356770836
C        11.06286588181194    4.31804127571856   13.26266973645721
C        10.15213519149213    3.26158653988929   13.04592405630697
C         9.47064522695118    3.11422469634003   11.82679172318302
C         8.60170461446113    2.05880188516371   11.63721964316034
H         2.58976274437140   -1.75889049639785    9.34566124383938
H         2.43215453836089   -3.42656811528484   11.15834538996038
H         3.58638020455008   -4.70021191444768   12.96687613787839
H         5.62233383558684   -5.13380746094690   14.28927877231613
H         7.68815340144892   -3.87272030331689   13.82747724253427
H         7.71661982337590   -2.10715786865896   12.09307186014716
H         2.92597282724479   -0.34000227691978    7.79393040087788
H         3.56625893061142    1.22407900077311    5.99557280546086
H         5.37169341206694    2.53558082593142    4.87581066110311
H         7.71659041561989    3.29713356432603    4.81923815337615
H         9.29692104762980    2.56490160497244    6.56168757960539
H         8.52873434027709    1.12793862095741    8.42571264747775
H         8.85383104282730    0.55144111975379   14.70056683053569
H        10.45548295682529    1.78046372018421   16.10867197063040
H        12.02947527555360    3.64569249820108   16.42430254979528
H        12.41452911575160    5.26564583759937   14.60557990795039
H        11.22851255287196    5.02610855817691   12.46242406222491
H         9.63727841199733    3.81857313353841   11.02458832720993

