95
CSD_code = ISUKEO | q = 0 | S = 0 | Stoichiometry = C45H44N5Rh | MND = 6
Rh        3.83598679506113    5.39696701208866    3.26479071219185
C         3.20951267158183    4.98752630584510    1.40857833339751
N         5.67853022913522    5.87151453745707    2.53171760694963
N         4.49164041372038    5.84361956846581    5.21498421045424
N         2.00007406924987    4.91951567668342    4.01356977106733
N         4.40779393845042    3.49294448733595    3.50726705153447
N         3.24307693737395    7.29571828928369    3.04768814250192
C         1.91267187649814    4.54730173296578    1.05612374189786
C         1.85985913469716    4.37713450150058   -0.39411244689354
C         0.84555508662409    3.97617576888220   -1.24048054293984
H        -0.13245988356826    3.71446314025329   -0.86104613321606
C         1.10345433121211    3.91405850648559   -2.60405980612113
H         0.32091897800005    3.60275957004951   -3.28198769147569
C         3.12911285803484    4.71588845618993   -0.90557090778521
C         3.37660192573932    4.65097782827833   -2.26210986119920
H         4.34482276005387    4.90793700628273   -2.66822130079359
C         2.35077402605550    4.24654862749078   -3.10724380025975
H         2.52721073206164    4.19058178985264   -4.17242426180235
C         3.97211656832025    5.09586350694946    0.22649345530409
C         5.29515868889712    5.48786555122478    0.14046214934811
H         5.76195823317155    5.52257871841562   -0.83393331924516
C         6.08316664690079    5.84446687406733    1.22918960234490
C         7.45945109204899    6.24840436147087    1.14362488928118
C         8.23182825621457    6.34554811451709   -0.12704595971337
H         7.77781878647541    7.07893160575486   -0.79398614388327
H         8.24507543621782    5.38471947246187   -0.64203861750129
H         9.25804274694165    6.64834989511905    0.06518808790107
C         7.87616640402106    6.51078517488460    2.41815158023229
C         9.21658616382330    6.99602198763167    2.86561169953070
H         9.97364108484846    6.70106521576557    2.13586987569004
H         9.48460644134438    6.53318283848752    3.81861496443227
C         9.23244834821631    8.51909290899021    3.01685273011302
H        10.21469966915655    8.86286201175640    3.33524228471229
H         8.98852247653594    8.99260885787219    2.06838353023200
H         8.49766818758005    8.83637486183309    3.75381795147463
C         6.74638145158678    6.27749382490795    3.28005062501305
C         6.77735498788674    6.46297696620407    4.66279130906670
H         7.71718368112932    6.79272696736589    5.07958333993420
C         5.73237967318998    6.27688361885808    5.55730194169796
C         5.78739825870584    6.50402248647654    6.98306108452642
C         6.97598743465588    7.02407055440334    7.72243386675443
H         7.88668942117425    6.55920410687075    7.33577928814040
H         6.89474135460252    6.76223463045885    8.77926735415302
C         7.08663329705291    8.54480893741378    7.58631796807742
H         7.95247205157788    8.91648196010364    8.13079926800837
H         7.18628177045766    8.82739740870783    6.54048195822684
H         6.19408219460469    9.02385612992107    7.98362182025005
C         4.55007820655383    6.20508657789880    7.47338562328805
C         4.08370724293014    6.24791677095392    8.89097268967720
H         3.05315359338541    6.60969723865746    8.92951114888533
H         4.70069170962964    6.94613594042941    9.46066948229830
C         4.15963051877097    4.86283126993099    9.53799488552465
H         3.80721941707732    4.90054585867546   10.56693751029895
H         3.54872357601665    4.15203507676926    8.98585966774780
H         5.18606653195493    4.50166079625309    9.53520290950432
C         3.74875230865422    5.78117222699242    6.34731492974037
C         2.42749053838119    5.37000631111743    6.39705432207383
H         1.95833004955273    5.36240098437492    7.36924665973919
C         1.63662500908240    4.96422657225402    5.32584783397262
C         0.26902426378085    4.52994231570148    5.46075866126172
C        -0.47034240005219    4.39939507313193    6.75190992180297
H        -1.54550140220510    4.44809465848574    6.56575717931135
H        -0.21561023252880    5.22968481679461    7.41481349378450
C        -0.13946459675220    3.07489186825985    7.44393612589452
H        -0.67344613621791    2.99099221129321    8.38850955383097
H        -0.42291457028442    2.23844337950211    6.80869550115072
H         0.92849903624404    3.00592982113907    7.63928274166740
C        -0.17438178499874    4.22302133906951    4.20567068578928
C        -1.51048825479030    3.71290028338103    3.78538631013353
H        -2.17829218745371    3.62909682745320    4.63873425900832
H        -1.41678721013867    2.72767518043558    3.32739131053168
H        -1.96611786165094    4.38159493009319    3.05476670056018
C         0.91607461948051    4.47902509038641    3.30624505383127
C         0.85996839133653    4.30646981540457    1.92502331271664
H        -0.07818663431264    3.95973751486119    1.51418154590944
C         3.62253562744129    2.46813888291870    3.15896706217371
H         2.68322314240934    2.70629099246489    2.68187853225408
C         3.96457592210002    1.14599887446188    3.37808642008658
H         3.28569550907828    0.36427929723275    3.07562389172088
C         5.17552169288536    0.84723914702283    3.98011563787447
H         5.47125847116958   -0.17419554966343    4.16472021795154
C         5.99538439638095    1.90604804724854    4.33380964140576
H         6.95232547514636    1.73686255447804    4.80208641349020
C         5.57809998547456    3.20048208863902    4.08261231393392
H         6.21509034852414    4.02876895882249    4.35783664511337
C         2.03520555593550    7.60862892168100    2.56691533408615
H         1.40753397476494    6.79240303622780    2.24039568552922
C         1.57483661564734    8.90925442931700    2.47007150709071
H         0.58855464865677    9.09575597207041    2.07534268695045
C         2.38945895900964    9.95174747517415    2.87966130683794
H         2.05902283019192   10.97732448516154    2.81731643046043
C         3.64480833515210    9.63171546452700    3.36962222820909
H         4.32580094499382   10.40023452235878    3.70033754481900
C         4.02861664976638    8.30482278682792    3.43626520948155
H         5.00707148650205    8.05127650904062    3.81782386898593

