67
CSD_code = ISULEO | q = 0 | S = 0 | Stoichiometry = C28H27FeO10P | MND = 5
Fe        2.54388971691783    2.30209993142644    0.36504306108680
P         2.80160398400043    3.24420218545295    2.43625989369165
O         5.36290831679079    2.87387337757855    1.69207119290205
O         2.70146828079561    2.26491601263560    5.45766336983749
O         1.37264981262550    5.14143946828201    1.19305724675689
O         5.19160499594117    4.81559808237962    3.83186008486689
O         1.47834624843794    1.00030640231032    3.06667608747271
O         1.30446926435343    5.54098428557787    4.05771915503689
O         4.03594282512325   -0.07500566300912    1.23380447560402
O        -0.37641388907210    2.36942838780090    0.67922951862152
O         2.24205794980310    1.16929370226461   -2.28492577929755
O         3.96499782491746    4.57052294068215   -0.84186800538600
C         4.03785755633018    2.44124008487633    3.52350422492081
C         5.27631887526859    2.25344488907297    2.89215020850605
C         6.29444057525087    1.53140403546465    3.49580439605728
H         7.23818831600482    1.36797988663810    3.00117408263928
C         6.08051431380351    1.01689206713708    4.76146865863129
H         6.86000181866928    0.44453333075626    5.24254372139310
C         4.89543142146563    1.24499220458384    5.43202386410797
H         4.77800321336012    0.85734190348330    6.43119199262408
C         3.86668747364314    1.96799692205248    4.82842617095388
C         6.52693709067113    2.70633889328496    0.91784479178117
H         6.35487596488429    3.26160822691083   -0.00254383984105
H         6.69760464807727    1.65277887627589    0.67642827724065
H         7.40643949749423    3.11296106681011    1.42829635650262
C         2.46654360437953    1.76684010313112    6.75028968754223
H         1.46216192855642    2.10131288658023    7.00866448972518
H         3.17996079091188    2.17049406631436    7.47667399541678
H         2.49985106592213    0.67257590926194    6.77786584644577
C         3.32334630163564    4.99887574315941    2.40668280794275
C         2.48001816156153    5.79518117631409    1.61703001984791
C         2.77652283814432    7.12327959903983    1.35333998291212
H         2.13763728979964    7.73010575998134    0.73234659681656
C         3.92274454931419    7.66744048633828    1.90372276146713
H         4.17363990619428    8.69803533363600    1.69992395985310
C         4.74208862338407    6.92051060998874    2.72614223599775
H         5.61220061458021    7.38708753617457    3.15928125736273
C         4.44830078657190    5.58371934725613    2.99577879615740
C         0.45710489484686    5.81398662734971    0.36163604060565
H        -0.33285271169570    5.09653112112450    0.14658583360916
H         0.92500134092363    6.12712791169951   -0.57671019731525
H         0.02759418602734    6.68597114494499    0.86623521591383
C         6.38239073444956    5.33265120181083    4.36945207331097
H         6.82070735323586    4.51295739852693    4.93837416904436
H         6.19253840863074    6.17656628941672    5.04128647532211
H         7.08142343982700    5.64279819490642    3.58550455344316
C         1.28976807032505    3.25851773201060    3.47005156967879
C         0.70788305783303    1.98737268129220    3.58334157198222
C        -0.51681370197422    1.80455559804572    4.20658989504929
H        -0.97394231610947    0.83072674825440    4.27495601493284
C        -1.15348836055412    2.90572779984304    4.74926841755120
H        -2.11238965072918    2.78261319410298    5.23088411982900
C        -0.57108524631519    4.15691464141266    4.70910038699557
H        -1.08236987292008    4.98534351220655    5.17251223443211
C         0.66056154896080    4.34649475694193    4.08255735949996
C         0.98046110339578   -0.31670839588097    3.04795653894473
H         1.74966945713305   -0.91948563124424    2.56854711057548
H         0.05505520059302   -0.38509544252651    2.46805665528819
H         0.80670643142047   -0.69092843959155    4.06239831935132
C         0.68361171488285    6.67164413199887    4.61458289915198
H         1.37122213644950    7.49693733266214    4.43142337661439
H         0.53149454020577    6.56112786402716    5.69354304935351
H        -0.27609531624225    6.88822933067070    4.13324629526248
C         3.44665815966187    0.86297697731134    0.91095159836423
C         0.77236067353291    2.35609623069819    0.57208500768992
C         2.35999185379588    1.61631361819424   -1.22818678408756
C         3.41319031390907    3.68640581187164   -0.34627544460014

