77
CSD_code = ISUNIU | q = 0 | S = 0 | Stoichiometry = C24H44Cl2N6Pd | MND = 4
Pd        2.01844686677023   -0.15187198878053    3.98707800958676
Cl        2.07168177195047   -1.84671299388473    5.51849112394191
Cl       -0.16517321014084   -0.68422894438629    3.65494807094620
N         4.06077073108444    0.44322485167771    4.12284220710340
N         2.02575552077359    1.39967068087702    2.55062763575884
N         4.63234239419769   -1.82346131050995    3.38018172745302
N         5.12817287657526   -1.18722219730571    5.43021823187510
N         0.50670119915586    2.71889358399252    3.94595534319461
N        -0.19636828720626    1.92212925292059    2.01575923341939
C         4.41882116686551    1.24945455729341    2.96571657880924
C         3.25672480651350    2.17135547110278    2.61027053643920
C         4.55865872409627   -0.77671832530592    4.26965841751217
C         5.19914519697501   -2.90736969039222    4.04168529362315
C         5.49446382825423   -2.51451596313660    5.30475813213517
C         5.44265896112627   -4.24677044360739    3.43796983175627
C         6.07147464813812   -3.30062523132788    6.42694620747362
C         3.86410596785283   -1.85455965478702    2.13538258669151
C         2.77961243572267   -2.93482680032083    2.15210393729745
C         4.76795227759165   -1.95063472461115    0.90525655319129
C         5.33827623031598   -0.35723786625239    6.60423012591583
C         4.01993719726867    0.11133705812732    7.21118294605281
C         6.23518710486742    0.82925985816277    6.24780756062591
C         0.87088395612481    1.98043540794637    2.85054101839749
C        -0.82678814359459    3.07758647203003    3.79087266311767
C        -1.25710809041844    2.58277048567657    2.60176257741926
C        -1.61340779429112    3.88502164794987    4.76412562557249
C        -2.62106393910546    2.67873553485970    2.01892698792265
C         1.28474546338162    2.70215634742658    5.18248090140736
C         0.57071965481586    1.89985606784060    6.27378251935441
C         1.69133614573460    4.10227421610781    5.64536406518514
C        -0.11260473603577    1.22133461006270    0.74532143651983
C        -1.23650014030087    0.21224808554738    0.54176483897927
C        -0.00950947804249    2.22274854417680   -0.40538114306021
H         4.70322697774683    0.66088815178034    2.08364535527279
H         5.29607450961803    1.86215494889842    3.23617236695772
H         3.21611390758759    3.00685375638173    3.32383469043144
H         3.43153861142332    2.60815996049098    1.61228574814398
H         4.58835933933232   -4.90360933571384    3.60072363963722
H         6.31200796538236   -4.70243198149068    3.90677759156219
H         5.63297453673090   -4.17472388746950    2.37243346769050
H         5.37581736006496   -3.31770115489333    7.26466869905397
H         7.01928266011412   -2.88027328849815    6.76529372064109
H         6.24095145683181   -4.32391136228922    6.10762276239552
H         3.31775625905984   -0.89293501567861    2.09151426111640
H         2.20545121373821   -2.86290147643987    3.08073217291713
H         3.18867545164132   -3.93628363414317    2.06352923405944
H         2.10017462922064   -2.76109768062020    1.31907996874418
H         5.60264322210997   -1.25606494034147    0.98319677670104
H         4.19308571305003   -1.70228893153264    0.01650559483660
H         5.16710547139029   -2.95337997627562    0.77698887491611
H         5.85963353642221   -0.98537231898076    7.33216023801021
H         3.42567915132801   -0.74194315476428    7.52601494651681
H         3.45002266976132    0.66083672870019    6.46167268947365
H         4.21591926056161    0.75365319981872    8.06643605450667
H         7.14808523921344    0.48795158828219    5.76364947838887
H         6.50145427135458    1.37320683803173    7.15035145514658
H         5.70712324492875    1.49659639167054    5.57445291744797
H        -0.97248875265667    4.52021173699545    5.36472436415044
H        -2.19067410166743    3.23894222760888    5.42591320702019
H        -2.31425590605177    4.52187421720042    4.22770417543473
H        -2.58797559599377    2.91443220117643    0.95834006100968
H        -3.18096963532451    3.45811270533044    2.52879806000736
H        -3.15205637488320    1.73755404957901    2.15268523295433
H         2.20544366816148    2.14138833401524    4.94441772190354
H         0.38846921894487    0.87792651620386    5.91637258492095
H        -0.37667920114169    2.34799504880391    6.55617963555279
H         1.20935835874982    1.84682595401213    7.15322282567535
H         1.97349947096684    4.72119198148332    4.79570464040867
H         2.54551429879408    4.02475423682911    6.31361745733490
H         0.89057693026386    4.59860485267062    6.18699745323313
H         0.83439502540674    0.67162916860926    0.82225541977520
H        -1.37065185409914   -0.35944986577609    1.45685406869977
H        -0.95776434611608   -0.47084199746357   -0.25667963867761
H        -2.17087121114457    0.69146718483412    0.26743673167587
H         0.82198520982148    2.90416630671645   -0.23903393212782
H        -0.92107865179670    2.80694538059774   -0.50515315105938
H         0.15891548403175    1.68954973645819   -1.33713140409817

