36
CSD_code = ISUYAX | q = 0 | S = 0 | Stoichiometry = C13H13Cl2N3O4Zn | MND = 4
Zn        0.02815484780729    6.05127828667225    2.89266581204149
Cl       -1.28117358521759    5.96466062563999    1.15557643627697
Cl        0.60439927963754    4.42980762187807    4.32116082340095
O         3.60071237020994    6.99119390235901    5.48371190748226
O         0.69905828346102   10.50467703896238    4.31270118857885
O         3.82630388255795   10.25339336113134    5.00025663564382
O         3.25325066220621    9.60416466057128    3.03895398457835
N         1.94723525095763    6.74500719163014    2.28441687772502
N        -0.89296733189798    7.32775646172631    4.38325099408687
N         3.15660404559367    9.61027131299142    4.24273838014923
C         2.25661845455902    6.56138456374843    1.00272248923449
H         1.41995153775522    6.39177133688596    0.33874202156357
C         3.55774681390351    6.58496806197637    0.53652954791018
H         3.75789548226818    6.43588341018077   -0.51208687107278
C         4.58484817500003    6.79347919262092    1.44366378424849
H         5.61498686318135    6.80722566771569    1.12238470333874
C         4.26332196012645    6.99765667048014    2.77318142588314
H         5.02266949750240    7.18318504853157    3.51709561257626
C         2.92740711464390    6.98419689873322    3.15535105821945
C         2.53903285522636    7.24285873806496    4.59766904548162
H         1.67656003903295    6.60806717019224    4.84189311130339
C         2.12261424680087    8.71254529247070    4.82686196233787
H         2.11682959306641    8.90946559091420    5.90343072544336
C         0.77543219494830    9.10235277922503    4.19477179885961
H         0.77389832778113    8.79515965798145    3.13915765235382
C        -0.37084068881998    8.42846107358107    4.91830568190273
C        -0.85951022174433    8.98333779176634    6.09433449846939
H        -0.40150290119533    9.87925862571373    6.48372207844196
C        -1.92909075404742    8.37575646803680    6.72923496782140
H        -2.32482252183547    8.78284241450458    7.64715576295150
C        -2.47881607845942    7.23839082820800    6.15871668664288
H        -3.31763336818856    6.73463252327168    6.61083448430536
C        -1.92554600804978    6.74890148331752    4.98852560833382
H        -2.31828209857458    5.86200350358726    4.51062897316864
H        -0.03357428486563   10.84038211044135    3.78546114783604
H         3.69732806464533    6.03912263428681    5.59557900248125

