47
CSD_code = ISUZAY | q = 0 | S = 0 | Stoichiometry = C20H23NS2Ti | MND = 12
C        -0.93331459046746    4.24743529995167    2.17899942194037
H        -1.24515828754305    4.14040035576939    1.14692555873231
C         0.40960307273256    4.32886313577531    2.62356167075649
C         0.37680784815599    4.58270617725515    4.01624207380772
H         1.24231758974007    4.78132403564958    4.63721775870722
C        -0.96940212884730    4.66107655055130    4.42097554789396
H        -1.30791463417620    4.95802734665288    5.40480875311760
C        -1.77890062399040    4.45745632036578    3.28437219857498
H        -2.85558532984100    4.55806751601275    3.24054412156721
C         1.63164333968691    4.30443310546086    1.76288246618084
H         1.85509949270091    5.31293562320617    1.40816111575975
H         1.48119562170962    3.66184493277502    0.89526882300403
H         2.49083033563658    3.94109965471247    2.32690188146629
C        -1.33169546600668    1.70250122135442    5.72584705917307
C        -0.96799836470071    0.57280393788591    4.94534332483031
H        -0.25894096500407   -0.18499157981467    5.25666599846097
C        -1.84466531938689    0.49619751752812    3.84407589512685
H        -1.91397899631475   -0.31415909566712    3.12827634509535
C        -2.73700372592303    1.58565212183419    3.92457047738924
H        -3.58042023688363    1.75368495500364    3.26616397635252
C        -2.44807930075157    2.29479724929756    5.10845331767341
H        -3.03917494565477    3.10153313783142    5.51857410692066
C        -0.70024008854952    2.09693735435105    7.02623153263870
H        -0.85772235444370    1.31785117160839    7.77472611141136
H        -1.13106352993252    3.02416600233453    7.40161051055974
H         0.37855021374684    2.23122907797120    6.90256144743137
C         2.97508665694697    1.01546383247266    1.47180814496096
N         2.09948449714921    0.25713276060823    2.26228058029802
C         4.08841206447620    1.65340906323380    2.02564500172201
H         4.26870289313818    1.63446962606205    3.08759166377122
C         4.97614366114822    2.35251492870316    1.22975326417777
H         5.82508733089645    2.83589215508192    1.69115758881307
C         4.78328525051610    2.44546063117572   -0.13640692017145
H         5.47682078173585    2.99553732771339   -0.75387212631426
C         3.67852548239583    1.82828330897302   -0.69499444776561
H         3.50076153832973    1.89533059712332   -1.75849546541788
C         2.18621055379164    0.33678872942611    3.67915593425211
H         3.21554612315826    0.20851740394810    4.01384759929193
H         1.57549749592972   -0.45301244778025    4.12377866632090
C         0.79764913969663   -0.04478830747114    1.76736804825116
H         0.29367973083560   -0.72223877609767    2.46212599375036
H         0.85253814619283   -0.52371402259931    0.78936065411374
S         1.65146082680849    1.96726086258095    4.37242712132163
S        -0.25554572518347    1.45310212351147    1.52314817519478
Ti       -0.55815666892619    2.46456643080979    3.64570007899237
C         2.78610938135622    1.12549249051491    0.09125011570904
H         1.93221221375506    0.67755815673776   -0.38859116598773

