40
CSD_code = ISUZAX | q = 0 | S = 0 | Stoichiometry = C13H22Cl3NZr | MND = 9
Zr        1.96352993118631    1.80666533986817    3.49086983408027
Cl        0.15139531721251    1.71670603380664    1.99393140946887
Cl        0.29380009522184    1.69452458276661    5.14266507589515
Cl        2.81350697045018   -0.14451275736061    4.49167790130660
N         3.04988703717348    0.96836843284122    1.49758260618061
C         3.89647493876692    3.21285569944451    3.00154169351639
C         2.71123131558324    3.98390612954501    2.79654870984253
C         2.07733579977453    4.14514834713203    4.06283410584421
C         2.87295429503048    3.48755522835881    5.04483013078533
C         3.99142716155327    2.91244544495991    4.38953763423398
C         4.82662354867307    2.65016216102250    1.96254292114721
C         4.49219116244158    1.16117712195374    1.74023052894932
C         2.69461713472469    1.55360401748421    0.19635442770876
C         2.74366869505913   -0.46828919780839    1.39847563164598
C         2.24322298984229    4.69217480012752    1.55165638526298
C         0.79505008022652    4.90050761601855    4.27687383689503
C         2.64343865074750    3.42769643564177    6.52739459684981
C         5.12686508604183    2.22360649159128    5.09326963885316
H         5.86444830553896    2.72170276578632    2.29952389739180
H         4.75461618991020    3.20867304402796    1.02733702090414
H         5.07836873375219    0.76453338004683    0.89528008321831
H         4.75495621589321    0.60116454639818    2.64637464999173
H         3.29179358339774    1.09495864801561   -0.60381272672266
H         2.86647538657339    2.62456689207111    0.19185396810901
H         1.63883849847364    1.37667239997392   -0.00428746106647
H         3.20078013811097   -0.90119381007943    0.49783507826658
H         1.65815457064999   -0.59751439817320    1.33915864863176
H         3.11977608763875   -1.00610397840094    2.26942488582582
H         1.95792010394172    5.71440465182740    1.80353031150148
H         1.36826857301372    4.20333343181932    1.11323408835350
H         3.03438556804916    4.75091658354638    0.80532618668535
H         0.96775551398826    5.97912294775634    4.24800823015587
H         0.35601344370628    4.64963076694250    5.24122666028629
H         0.07164261928600    4.64702043124871    3.49693855993226
H         3.36928030986442    4.05416623797246    7.05074247060470
H         2.75484905879441    2.40210548056103    6.88642089193115
H         1.64434156449169    3.77228576105926    6.78415939904359
H         5.39825651581553    2.78114360597174    5.98959609855490
H         6.00516132191738    2.16077771148565    4.45395090598040
H         4.85159748748365    1.21233097274218    5.39966108395301

