81
CSD_code = ITACIR | q = 0 | S = 0 | Stoichiometry = C42H33CuIOP3 | MND = 4
C         9.81121801654627    3.83609143536155   -0.96641173474421
H         9.74491539485661    3.31871848276188   -1.91218652250006
C         8.66114318898312    4.29927766492454   -0.34647768242774
H         7.69716771413059    4.14481675057138   -0.80842707122730
C         8.74962167320081    4.96731325174757    0.85937343911933
H         7.86207487580304    5.34892137727593    1.34763209134874
C         9.99119124260924    5.17575372774528    1.45176825636598
C        12.04320294201257    7.32466811074323   -0.60297986433985
C        13.36384219565805    6.91204156704578   -0.71932783827241
H        14.05059045469239    7.03659703463760    0.10520505395487
C        13.79572780534377    6.32239402144128   -1.89368119059460
H        14.82218916403662    5.99715939765366   -1.98354758566853
C        12.91744553549872    6.14341558145067   -2.95075401779615
H        13.26203237243145    5.67964195592692   -3.86333441356858
C        11.75033375202582    6.52196851547935    3.19238851601761
C        12.52825904517554    6.09913995773484    4.26564585833180
H        12.11196614957080    5.40628795687877    4.98362918351261
C        13.82420758589314    6.55841302430434    4.41534942064850
H        14.42156323904680    6.21632814119041    5.24711022457627
C        14.35028002793172    7.46742249491001    3.51117860588032
H        15.35851019624527    7.83408601350582    3.63395957325260
C        13.57489021935873    7.91948786866458    2.45897164701409
H        13.96839312402323    8.65806340344655    1.77264187048409
C        12.27566727943196    7.45483534205865    2.29043331314246
C         9.77542976019893    4.76268650134210    4.23101818527108
C         9.02537581537702    5.04647161922520    5.36745973562010
H         8.59580840629503    6.03210596552781    5.49088138684712
C         8.81606876016889    4.07018899415067    6.32492936308002
H         8.22991397241887    4.29601370347695    7.20290678863784
C         9.35047862245210    2.80533507334058    6.14679246656857
H         9.18505288286314    2.03932110129201    6.88990612562566
C        10.08974459897843    2.51506817130801    5.00980027455953
H        10.49869133382216    1.52465050169475    4.86963587914111
C        10.30229338363799    3.48691021877515    4.05053774559869
H        10.87272184529036    3.26014229669865    3.16001055972775
C        11.04697546898255    4.03610319353966   -0.37579945528618
H        11.94405953223757    3.67434574167305   -0.85816497892793
C        11.14321912342091    4.70823459616711    0.83013398986249
H        12.11360851917520    4.85572300058327    1.28737700694051
C        11.42782478398819   10.58548681409770    1.96565147109739
C        11.81029301266446    9.84672426982847    0.84593261063338
C        12.45359344827080   10.45745373866373   -0.21779295424458
H        12.73868385219037    9.87282572375565   -1.08237846557112
C        12.71973572413803   11.81586110576769   -0.16332359286142
H        13.21972455489814   12.29890328855249   -0.98980995449758
C        12.33756055241616   12.55720730066763    0.94444156879284
H        12.54334378093098   13.61705471666802    0.97920393336909
C        11.68607478657977   11.95086905941367    2.00483731827908
H        11.37540069981380   12.53270029649062    2.86220561424219
C        11.72269722644531    9.58802974054562    4.64019176119879
C        12.96009888104138   10.21765470062886    4.66677641215091
H        13.27017273452028   10.84236597601298    3.84051515939690
C        13.79379012920001   10.04335564319388    5.75724620083049
H        14.75461909286833   10.53732277955276    5.77932042813895
C        13.40367490396065    9.24269620905768    6.81786690544314
H        14.06038931237342    9.11322935668802    7.66542509419234
C        12.17272058943267    8.60637917027653    6.79231785103015
H        11.86596058243029    7.97947287776699    7.61650893296985
C        11.33998412821561    8.77320576675512    5.70368952170926
H        10.37647254673872    8.27471710770925    5.66588559486124
C         9.42306120428478   11.02020615498211    3.82063280719237
C         8.50892578202959   11.46472748232812    2.86528677453820
H         8.54098773377200   11.04300755726711    1.86676608735024
C         7.56450813142808   12.41316307706036    3.19980734108962
H         6.85210085968961   12.74945236939451    2.46132676981422
C         7.51720484507837   12.91271275570121    4.49226683445908
H         6.76704735931081   13.64112139302626    4.76034037060873
C         8.41606422709735   12.46478868629100    5.44435740573745
H         8.36878745721138   12.84437362756153    6.45430043371476
C         9.36952786678895   11.51654191025437    5.11624281850499
H        10.05967602790425   11.15761465962231    5.86729337193041
C        11.16352533047744    7.14079780584881   -1.66261670766034
H        10.13535879876638    7.45114108952336   -1.54366739809320
C        11.59922423644000    6.55270522622740   -2.83524704807775
H        10.91197238498645    6.40976401657407   -3.65578719815362
P         9.99881193762895    6.10239790588079    3.01810229239109
P        10.52514143935249    9.67852689993389    3.27590483328852
P        11.31573295194582    8.09418418957462    0.87603901358599
I         6.75853733828206    8.55574476579030    4.57119930529564
Cu        8.87960954972184    7.99518685344116    3.43574165178368
O         9.85310399485871    7.94228217536911    0.86941462375922

