77
CSD_code = ITACAH | q = 0 | S = 0 | Stoichiometry = C37H28ClN4O6Re | MND = 6
Re        3.01835729252046    0.88797603806122    5.14657341598941
Cl        3.13618581997734    3.09612116461018    4.25792450322069
O         2.81487121652559   -1.84172152581330    6.58399234064415
O         5.59473163929735    0.26842672840870    3.55451612328509
O         1.24214094683397    0.15363303292893    2.72562020581989
O        -2.60156600313178    4.22332735472943    7.95067794098100
O        -0.84038616368616    5.49923866702700    8.56864955361944
O        -5.94081048907907    7.66816489721345   13.27366869937748
N         4.03409223575067    1.85587417225144    6.75870101809732
N         1.45453534352202    1.79577911624390    6.26052537801109
N        -4.52655676903907    5.56044273651583   12.09224455096613
N        -5.34498113140899    6.43554199289079   15.19654711396742
C         2.89445088025546   -0.83562750742803    6.03509956430387
C         4.62590873160550    0.42433394584724    4.14207527838207
C         1.91474241807707    0.35580900702230    3.62761308837944
C         5.34311766841880    1.81437710827748    6.98928486995172
H         5.89864968049184    1.04831970135833    6.46373933992438
C         5.98955870648691    2.68637312626358    7.84105068478281
H         7.05669103333368    2.61184269246538    7.97865572011678
C         5.25363446719710    3.66571424609354    8.50559061580046
C         3.88586139990683    3.69039712069763    8.28002979593962
H         3.28221226209281    4.43001129197800    8.78074269223962
C         3.30062152063395    2.78138958918449    7.40188517818485
C         1.85915459655052    2.74851696444115    7.12366351640778
C         0.95427583728221    3.62687765338082    7.71318971890192
H         1.28360068090552    4.39765513987115    8.38909436924470
C        -0.39616025153931    3.51753240794049    7.41598745009478
C        -0.80497993953447    2.50831346371384    6.54608640179601
H        -1.84972617475032    2.39517857728519    6.30606421943252
C         0.15443378094829    1.68256666239618    5.99632547142699
H        -0.12876903944863    0.89418425624876    5.31072519856110
C         5.91725177597914    4.65015320735441    9.40912168210544
H         5.18810386932120    5.18976204191177   10.00795801819664
H         6.47756366530574    5.37231809495547    8.81490307261756
H         6.62181468996773    4.14821278005566   10.06957301345864
C        -1.41864747747730    4.42947803249758    8.00407291299822
C        -1.62594830577579    6.46598923383339    9.19538661348862
C        -2.56648142207747    6.14318520497755   10.13599441710617
H        -2.77489979162618    5.12095441202651   10.40702234733917
C        -3.29686784702972    7.16848974228905   10.76350628487498
C        -3.05986970317031    8.52142089823874   10.41041603127802
C        -2.07345588214237    8.80663907424534    9.44476381439988
H        -1.88769223714713    9.83644823021400    9.17768172548130
C        -1.36483013089470    7.80307760361411    8.84773944568657
H        -0.61077360167153    8.00867000177474    8.10399889829451
C        -4.27294842602789    6.87864222621064   11.74976565370537
C        -4.98957983539477    7.90584415679034   12.34738621253337
C        -4.76666219062235    9.24314477575919   11.96878987432550
H        -5.35594993273859   10.01194199363857   12.44390169996170
C        -3.82123758386396    9.53768089999624   11.02920392693755
H        -3.64352752233043   10.56429818039670   10.74445812451924
C        -5.32504365951875    5.32400381802166   13.04710230976375
H        -5.49433863322492    4.28999221438608   13.30596087815129
C        -5.99893803082635    6.36709480871157   13.89784175981360
C        -7.50097259528517    6.09819021130789   14.25589827976995
C        -7.57205195245096    6.70515417734499   15.63722182840385
C        -6.27466282124902    6.86912815940239   16.13179140576959
C        -3.95883029515108    6.82169688167125   15.27857451484631
H        -3.39373329401817    6.29502060108334   14.50945733894256
H        -3.57004194960507    6.52714163144786   16.25258071435121
H        -3.81306674447497    7.90210034989057   15.14940037510560
C        -7.80656608744032    4.60066103781305   14.37420836831977
H        -7.79254327962459    4.11746854896768   13.39972841223053
H        -8.79893037537983    4.47922446485029   14.80263419803219
H        -7.09240547242746    4.11296837596425   15.03400561882086
C        -8.45165024332657    6.74158883690248   13.25038963499613
H        -8.25778318558425    6.36071315451876   12.24917107624919
H        -8.33167964006704    7.82130791139224   13.24357875426072
H        -9.47828478666434    6.50605208888220   13.51813770648682
C        -8.66325163215449    7.03418366179658   16.40483612021568
H        -9.66608996311182    6.90953566630519   16.02451387790004
C        -8.45297647562476    7.54053737289318   17.68307543490794
H        -9.29848288817446    7.80989732904624   18.29768246217948
C        -7.16813143895583    7.70122479624295   18.16979605852071
H        -7.01963408623516    8.09691894704383   19.16394639642625
C        -6.05931724958514    7.37097133135343   17.40251232521459
H        -5.06314752738876    7.50930300988317   17.79306636315058

