74
CSD_code = ITADIQ | q = 0 | S = 0 | Stoichiometry = C25H42N3PRuS2 | MND = 6
Ru       -3.96017014634430   -1.95974366133630   -3.42922354366591
S        -6.25655825953072   -1.38448410482414   -2.96598512028579
S        -1.58897988969072   -2.09747343686193   -3.90307905589266
P        -4.08877828868318   -4.28314647434586   -3.08251078183515
N        -3.80601518473213    0.23824689589084   -3.90774938739216
N        -3.26375757623309   -1.31050823879122   -1.43449057738892
N        -4.70053637443368   -2.18592976791971   -5.49976434791211
C        -6.23225889189445    0.29149207180243   -3.40459539903404
C        -7.43263989739714    1.00735318005192   -3.32318635801996
C        -7.48609323343932    2.34220614022246   -3.64790247510286
C        -6.33490501270990    2.99992096777718   -4.05844468760597
C        -5.14252892162399    2.30510916066669   -4.13839428512173
C        -5.07223705090841    0.95398074879523   -3.82509011647714
C        -2.92252835396711    0.70689629125145   -2.83046022157609
C        -3.16400140513905    0.51051373387021   -5.20101551299337
C        -1.01561846835862   -1.93963342750305   -2.27497534735846
C         0.34466360291377   -2.15845283329834   -2.03755465555342
C         0.86528372995544   -2.08010330288466   -0.76682347248024
C         0.03273410409915   -1.77193931540224    0.29824728010168
C        -1.31117516521378   -1.53338632248314    0.07282015995963
C        -1.85829818350454   -1.61881240480078   -1.20079960208869
C        -3.40884586056630    0.15847147703990   -1.49919520232624
C        -4.11008832876744   -1.77611234756506   -0.33089003679587
C        -2.87842626288961   -5.04974334563001   -1.84760788695638
C        -3.29733435445319   -6.32713994608211   -1.11972764106004
C        -1.49541644524572   -5.25417351374179   -2.46653011753874
C        -3.91544086816829   -5.30539044583625   -4.66752263067568
C        -2.71989718932977   -4.89922909289761   -5.52837462057981
C        -3.95661382076324   -6.82666651229647   -4.53515798429819
C        -5.72891819930486   -5.01014021081444   -2.51017411680547
C        -6.18503012682230   -4.39724305163411   -1.19123222307901
C        -6.83069729138955   -4.79777598415953   -3.54579001826268
H        -5.12928974220846   -3.09336156722805   -5.66431806833471
H        -5.42787300243033   -1.47892107702942   -5.62153150837166
H        -3.97295418900574   -2.04522188494285   -6.19779620000536
H        -8.31402833109132    0.47631790025675   -2.99646906783538
H        -8.42202440459530    2.87702732388410   -3.58080940669414
H        -6.36310395272646    4.04876229233080   -4.31238159271504
H        -4.25399740818292    2.83461154330146   -4.45230365181158
H        -2.90629266220964    1.80631744194717   -2.78671655658071
H        -1.90421912687191    0.35901853643258   -3.03094213645389
H        -2.35692921393981   -0.20750916875593   -5.36039168902798
H        -2.73112412489606    1.51562306259451   -5.23433342137095
H        -3.89590787008460    0.43083386877718   -6.00473215776727
H         0.97202972523268   -2.39946677407977   -2.88260432077481
H         1.91711162554741   -2.26071408444135   -0.60126993669900
H         0.42591296045694   -1.70898978674828    1.30172869126837
H        -1.93383951591688   -1.27642997560669    0.91665937308038
H        -4.46941641823948    0.40785607555053   -1.37899020743141
H        -2.84843223508980    0.62776774639579   -0.67722089626155
H        -5.15190353211679   -1.71987677700071   -0.64661002209333
H        -3.99038259119604   -1.15976448245208    0.56628055960360
H        -3.86611425900699   -2.80727006254741   -0.08744099687889
H        -2.77118206470826   -4.25631358364747   -1.09569634314109
H        -1.24401032396845   -4.43752551054309   -3.13607343117486
H        -0.74130571565736   -5.29245321469226   -1.68089277030037
H        -1.44840254499843   -6.18745389034395   -3.02087759602935
H        -4.19131148106907   -6.19062701123651   -0.51887229715193
H        -2.48883361269069   -6.61821976403628   -0.44860351408606
H        -3.46492833150250   -7.14740811065882   -1.81110199657651
H        -4.81999568185523   -5.01077071192155   -5.21675842047601
H        -1.82036872401759   -5.42386769357859   -5.22278736006561
H        -2.52619260551166   -3.83195364385674   -5.44682130865971
H        -2.90920249738772   -5.14454211623856   -6.57353128410035
H        -4.83862791182809   -7.17175864290147   -4.00319662378786
H        -3.07143988680152   -7.20485281106088   -4.03346578265732
H        -3.97990000840373   -7.26354465425278   -5.53410522862814
H        -5.57311478911306   -6.08313881701167   -2.36426901102123
H        -7.05344062928301   -4.93555798831075   -0.81273340496502
H        -6.47358195692731   -3.36349040644845   -1.35618427794072
H        -5.40763186029869   -4.42903088166964   -0.43328757672896
H        -7.79543858446322   -5.03724948896415   -3.10139624341738
H        -6.85482232843174   -3.75118956313767   -3.84662861621377
H        -6.70718257794120   -5.42842457248777   -4.42274371358797

