80
CSD_code = ITADOY | q = 0 | S = 0 | Stoichiometry = C42H33BrCuP3 | MND = 4
C         8.32275167115137   15.08071841268251    1.86436763998602
C         8.14490255265020   15.54990600648255    3.16989785665854
C         7.08773390455417   15.08400684014708    3.93742719574568
H         6.95064951070314   15.43815672723991    4.94989494125014
C         6.21391378627106   14.15632016735208    3.39452404856256
H         5.38814470052295   13.79058558355302    3.98754564114047
C         6.39282211606488   13.68909746556017    2.10067137658528
H         5.70625285283334   12.96186532609590    1.69248199532575
C         7.44909356708823   14.14521067315079    1.33034141900802
H         7.59812523256996   13.77814986621282    0.32398325899300
C         8.98925254395892   17.05865722798221    5.40007212862338
C         9.30945020970035   16.03551026687129    6.29035545149982
H         9.73054268509710   15.11580045683028    5.90200253096739
C         9.08729187812445   16.18933087354091    7.64410308244501
H         9.33029025385037   15.38884503206022    8.32769410515032
C         8.55946588498609   17.37778923483305    8.12419755272680
H         8.38949581105416   17.50451756123704    9.18320350335451
C         8.25455980579935   18.40351159942357    7.24646056953984
H         7.84691581115443   19.33149745302229    7.62101165852461
C         8.47158022936659   18.25081202885299    5.88821939894985
H         8.23486314123180   19.05900423080692    5.21040704214092
C         8.77824295511380   18.22888797291569    2.83574712763855
C         9.75234395037137   19.09249466899356    2.32452472278050
C         9.37341072426377   20.24833574412618    1.65628390599787
H        10.12070680587987   20.91624336529695    1.25090853258104
C         8.02774138332979   20.54221196686424    1.51806822133522
H         7.72914816685690   21.44183201608349    1.00015842409349
C         7.06195947916415   19.69544639666192    2.04111600415408
H         6.01553783320486   19.94027457554876    1.93154923159583
C         7.43232506012341   18.53590307676928    2.69972963840673
H         6.68312394888157   17.86902751354009    3.10617077505276
C        11.61311733516962   18.74767326424427    4.39150098742102
C        12.20610288306077   17.74181747209438    5.14650370719359
H        12.57117062117421   16.85290178998450    4.64607188400801
C        12.31877691659825   17.87980329009202    6.51730203518529
H        12.77673444707640   17.09728469174357    7.10384659678481
C        11.83529385967674   19.02051104527977    7.13661402029273
H        11.91279792811763   19.12549173356899    8.20850440927241
C        11.24975114191788   20.02728319613711    6.38558035452577
H        10.87630229450493   20.91641841812435    6.87257035847140
C        11.13657279398872   19.89639930650878    5.01407714761853
H        10.68065314719305   20.67894340520081    4.42154709741414
C        12.46965146068783   19.81944197487500    1.89913018821490
C        12.40922883227069   19.98102405067306    0.51490494239461
H        11.72324066975908   19.36880302985459   -0.05906787890534
C        13.21570781783904   20.90717353589431   -0.11526912816313
H        13.16257581971142   21.02916694795760   -1.18692502587523
C        14.10556051719531   21.66599466482463    0.62960593765749
H        14.74393500574914   22.38460416936850    0.13779677994481
C        14.18790190274140   21.49116686925786    2.00054058340084
H        14.89238201844934   22.07187038096726    2.57800522248148
C        13.37835498060497   20.56719469897289    2.63838338462210
H        13.45541004248346   20.42489712619028    3.70745192812402
C         9.04182231090262   16.92418164118611   -0.18172805573918
C         9.92748163090492   17.53484386841487   -1.06959260219156
H        10.97038805618156   17.23781666660546   -1.06826831994637
C         9.47639845293123   18.49131315402917   -1.95717858155798
H        10.16695463253214   18.95695893244497   -2.64519910713118
C         8.13744804558649   18.85144221206406   -1.96109964351663
H         7.78331179686609   19.60454963767062   -2.64940596232831
C         7.25318682124889   18.24014641868496   -1.08876309015508
H         6.20774115419824   18.51291334453383   -1.09976772345157
C         7.69902222892323   17.27890840880091   -0.19879535371335
H         7.00422526597015   16.80375703104671    0.47972865636037
C        10.23790574879378   14.36030385885916   -0.03903284003696
C         9.92404038614279   14.23146086884243   -1.38602141685804
H         9.35263373702207   14.99904351608973   -1.88954292291433
C        10.35907427304344   13.11848257196565   -2.08358453183814
H        10.12160574217342   13.02154724419318   -3.13304826880182
C        11.10345918039890   12.13932328518679   -1.44811062215403
H        11.45002144328027   11.28109331397313   -2.00401599050642
C        11.41703571534751   12.26486623035103   -0.10420497051446
H        12.00883523645724   11.50831411542197    0.38869302721650
C        10.98846536808383   13.37349906413134    0.59726410484047
H        11.24328354784455   13.49731746383431    1.64393307046407
P         9.78227110810588   15.77570335065301    1.01432352166455
P         9.44007428786915   16.74386183948219    3.65516013588695
P        11.44323521837993   18.48941824040046    2.59653415963305
Cu       11.94639911332594   16.69718928065309    1.34969234233605
Br       13.57201860542321   15.86532904791605    0.01543647220079

