80
CSD_code = ITAFAM | q = 0 | S = 0 | Stoichiometry = C42H33AgBrP3 | MND = 4
C         5.97283501624621   -1.48980838383629    2.00021369398924
C         6.72904458969342   -2.35115316205035    2.78673081134470
H         6.73645870306397   -2.23768013029183    3.86164180774284
C         7.47268794432276   -3.35461328906000    2.19073512733339
H         8.05403860115359   -4.02572074525609    2.80615593739600
C         7.47826484575169   -3.49904052886551    0.81361622130985
H         8.06028182268972   -4.28439640927272    0.35462895825751
C         6.74734111409715   -2.62579114597960    0.02292272530205
H         6.76283060853244   -2.72696685917369   -1.05269666621528
C         6.00890174655814   -1.61849908290031    0.61181612686910
H         5.44731805694426   -0.92182892531720    0.00189076309117
C         5.02754823939248   -0.41490675615275    4.46443280607765
C         4.36851860713745   -1.52501512422613    4.98593110303842
H         3.87628937753024   -2.22173213522026    4.31947840328211
C         4.34471676736957   -1.73156331765539    6.35216938956880
H         3.83004772487946   -2.59161865786189    6.75560039425504
C         4.97427439323028   -0.83759791075740    7.20396189294981
H         4.94349836305959   -0.99922130066922    8.27122103338443
C         5.64122456810849    0.26087180938036    6.68852920360686
H         6.13619818764088    0.95646211311375    7.34910710816466
C         5.66901005707297    0.47212142632094    5.32198987899817
H         6.19265481188935    1.33259410339931    4.91200247270584
C         2.35524755521339    0.35543420295554    2.81295659591520
C         1.00478939267673    0.09717996012553    2.61558285667772
H         0.26460215451130    0.77639595803077    3.01886028042131
C         0.61284906270327   -1.02324593742172    1.90580151463164
H        -0.43745052920677   -1.22612863324684    1.75648639574006
C         1.56785536392858   -1.88174763079195    1.38521098623133
H         1.26128777228034   -2.75273100104221    0.82477379533539
C         2.91510464847834   -1.63623748075712    1.58307134341672
H         3.65061585654056   -2.31831768277620    1.18083875304292
C         3.31990904977058   -0.52097996237836    2.30506198577375
C         2.45036871345474    1.44247966447323    5.43961942188986
C         1.77602401044133    0.30152301426605    5.85503977134375
H         1.44843072305057   -0.43281194474373    5.13239569990804
C         1.52378204725060    0.10717058316385    7.20172481646133
H         0.99588432532595   -0.77929159328445    7.52275344515678
C         1.94612574179496    1.03779941168896    8.13567061345542
H         1.74688152394722    0.87697562733967    9.18486940111861
C         2.63146973543890    2.17131625379715    7.72628865512903
H         2.96941144003270    2.89408780373523    8.45402987807245
C         2.89158769513159    2.36760045384298    6.38494907716753
H         3.44347759994543    3.23893122968264    6.05042286770307
C         1.67005184720586    3.01208487948995    3.21201586174263
C         0.63418592756623    3.45523621552763    4.02614650673961
H         0.53443111066864    3.06591183471275    5.03014651976477
C        -0.26333408003275    4.39634057103148    3.55347571800056
H        -1.06672991584187    4.73624080912596    4.19048817419781
C        -0.13237791802619    4.90631335818744    2.27104313062064
H        -0.83369473846974    5.64294863838543    1.90774741252830
C         0.90044096515047    4.47944341728235    1.45506304987883
H         1.01126681969611    4.88746232673197    0.45964384647014
C         1.80408144817710    3.52991011824598    1.91610749519950
C         3.43491891174211    4.32279770204823   -0.24011176051241
C         4.26245480341185    5.35701477936938    0.19105047705840
H         4.74270074569087    5.28936443512651    1.16226900203954
C         4.48195834746529    6.45503360144176   -0.61858395431148
H         5.12581007926835    7.25207689855092   -0.27896939211897
C         3.88491996309539    6.52151418049573   -1.86740340997136
H         4.05917484957561    7.37553538947218   -2.50507780668280
C         3.07104542760063    5.48883210286653   -2.30472924230087
H         2.61101321607693    5.53890209431284   -3.28128709279434
C         2.84300739899347    4.38874175251705   -1.49750532595501
H         2.21007742470018    3.58307523553513   -1.84445180924104
C         2.46230343717267    1.68090554779257   -0.15381670714379
C         1.10071043341609    1.42351047786777   -0.24491143881631
H         0.39851945861071    1.99971443682620    0.34190725526778
C         0.64718371191416    0.42990396244566   -1.09452196949664
H        -0.41276184879850    0.23388068730178   -1.16904837039003
C         1.54223986089308   -0.31098202006993   -1.84743463610361
H         1.18038419001213   -1.08692041111529   -2.50565274449003
C         2.90209683757197   -0.05666340298481   -1.75892050397408
H         3.60041007076559   -0.63302611610551   -2.34847718417714
C         3.35964261210502    0.93421475722217   -0.91356021967635
H         4.41907439555592    1.15153988468462   -0.83356500618292
P         5.04568194605254   -0.07411505708125    2.67265793470251
P         2.93744666831307    1.81349237975841    3.72565591937648
P         3.21123068813050    2.93886859156266    0.92582846640413
Br        6.97026731573207    4.06392522185614    3.19856417197037
Ag        5.14882955979873    2.53667283528227    2.59403028534512

