127
CSD_code = ITAHIU | q = 0 | S = 0 | Stoichiometry = C51H70N3NbP2 | MND = 5
Nb        1.92643272721610    5.03033504109031    2.54629215016252
P         4.23249908739876    5.77681057833966    2.35174642081537
N         2.11257197298036    3.54522949698634    1.19444413445120
P         3.32214179380529    7.25994148280562    3.58012069063880
N         1.92737906403208    3.80892299810929    4.13162612710994
N         0.63686664131957    6.40673589366661    1.82811596159802
C         1.45440712867146    2.35937043492615    1.50389375222804
C         0.08632335732951    2.37939057262268    1.79091189286464
H        -0.46414826426269    3.30679041941278    1.69585530086345
C        -0.60114038141754    1.22895084335778    2.15013446198120
C         0.08461261940470    0.02732575776932    2.23294742964263
H        -0.43974693370044   -0.87534604076202    2.51371367715979
C         1.44594344271785   -0.03047979364600    1.95344557393648
C         2.11529061542192    1.12261642301133    1.58704222194822
H         3.18049454123223    1.06567261292873    1.40795228339627
C         3.08841677401928    3.45599755977232    0.12106573325759
H         3.32786066357498    2.40729554248661   -0.08027366487187
H         4.01744067239095    3.96472412152659    0.42263444767112
C         2.61238221960931    4.07118999226237   -1.21944852380807
C         2.62478374160215    5.59532846472701   -1.12079220728403
H         2.22856894681507    6.04334844585818   -2.03053061839805
H         3.64223404125122    5.95428600266386   -0.97118371023923
H         2.02163328820021    5.91482308428614   -0.27000529087985
C         0.80886489297665    3.86587550351705    4.93231258518832
C         0.41228784370126    5.12836123913373    5.40708103903615
H         1.04999337943418    5.98640440240327    5.18720867989967
C        -0.72246086974018    5.28856797714633    6.18582602122336
C        -1.48507353037695    4.17026777171845    6.49954306521207
H        -2.36874497649436    4.28191237524242    7.11184791902468
C        -1.12121817462093    2.90664284040254    6.04412047458560
C         0.01518299255869    2.75904010494246    5.27018631110258
H         0.28292751239750    1.77798065290543    4.90522725239688
C         2.82585738365103    2.68486316502352    4.28681629873172
H         3.51893703907107    2.71046199236206    3.43532790524421
H         2.27519514600540    1.73401776386945    4.24570666743984
C         3.68975710455018    2.69046809756252    5.57367592623969
C         4.74220560811263    1.58882156538018    5.42010895912848
H         5.36893146805434    1.54055010417985    6.30767435801221
H         5.37986054091146    1.78627118750241    4.56141305631927
H         4.26696402988815    0.61942200205679    5.28200955144437
C        -0.62617190009918    5.89038550955543    1.51921247800073
C        -1.45223894442274    5.40965573155430    2.54244347178076
H        -1.11397599338369    5.47566099036650    3.56944954503146
C        -2.71210359630720    4.89601344582218    2.27725049655975
C        -3.14884476300774    4.82556943399703    0.96107330467283
H        -4.12840001457880    4.42292703595077    0.74485560922689
C        -2.34706233349669    5.27785287280663   -0.07918089634668
C        -1.10415365762939    5.81932867324320    0.20497277768036
H        -0.49306375937599    6.18324003404702   -0.60930039709352
C         0.86547742130181    7.74859739983520    1.31716964190468
H         0.68734272977511    7.79780285797473    0.23179396315175
H         1.92374345251260    7.98679297978208    1.48025809409975
C         0.02530968792592    8.88017852280569    1.97176569281846
C         0.06904424174416    8.76324697829840    3.49421448320635
H        -0.53038884898474    9.54832924867710    3.95111429561524
H         1.09422470581644    8.86101295621538    3.85077308782898
H        -0.32477480587112    7.79921966455028    3.81072488363178
C         4.36435029351749    7.31463254212384    5.09905299323463
C         5.74879470615213    7.25543810450079    5.00223414255989
H         6.20011187993467    7.14610841298866    4.02463008498516
C         6.52570588828325    7.32552736095279    6.14210591363580
H         7.60250963018518    7.28047263942166    6.06441175358058
C         5.92639488801652    7.45441807801998    7.38578596730138
H         6.53573396500855    7.50810042633016    8.27638363846538
C         4.54738332957923    7.51467618226818    7.48748920845320
H         4.07873817091600    7.61542168040019    8.45624776033000
C         3.76731067503926    7.44626477703306    6.34635365875469
H         2.68795719354339    7.49577849760962    6.42394494936083
C         3.92930832154276    8.86619321558580    2.90702868584552
C         4.36717204101295    8.99125368702727    1.59527776077853
H         4.40488012769386    8.10811498576061    0.96743234220618
C         4.76532540196515   10.22222357725749    1.10708039732710
H         5.11087958983154   10.31004308356695    0.08705132051504
C         4.72259274384454   11.34047079003408    1.92321091732138
H         5.03326314626582   12.30216989451984    1.54202770797217
C         4.28109851097842   11.22305262216653    3.23163964797280
H         4.24649235130606   12.09334387308129    3.87120612631575
C         3.88043378113782    9.99418673642856    3.72082794784871
H         3.53554487512685    9.90273429426888    4.74255266875258
C         3.58225633987261    3.62959448794730   -2.31909240407165
H         3.31697163980605    4.09580161680924   -3.26536027688378
H         3.55337070250430    2.55004428235500   -2.45138577217258
H         4.60002511705700    3.91871647193384   -2.06707001130293
C         1.20372835114793    3.56964143963518   -1.54363887747081
H         0.87359923937413    3.95969398464318   -2.50445622917298
H         0.49953383677174    3.88986049275162   -0.77733914180765
H         1.18645970076715    2.48196651165197   -1.58860257312711
C        -2.06889639174025    1.30519624346984    2.44446312484757
H        -2.50612430606810    0.31161834877002    2.51127549996863
H        -2.58164706548382    1.86721514061884    1.66604881293645
H        -2.23199863698049    1.82192610031838    3.38919322726798
C         2.17608283103404   -1.33794108647781    2.04892613968685
H         3.25251224951838   -1.18487391389444    2.05956807347888
H         1.92793621465553   -1.96810131574144    1.19454028228578
H         1.88823005457670   -1.87459060725398    2.95135430276911
C         4.37781030176567    4.04519199199322    5.71565476679604
H         5.02029096980266    4.06470707661451    6.59350923281454
H         3.63208293566787    4.83203931618114    5.82173544240150
H         4.98257243682294    4.26470624659444    4.83630549801916
C         2.85253138102251    2.41004264930975    6.82330066561217
H         3.50118855129045    2.35027101104080    7.69531932388820
H         2.31803832695859    1.46677361497265    6.72955770292887
H         2.12728559236056    3.20164379953780    6.99502468567809
C        -1.13881127036831    6.64792827991860    6.66462961889984
H        -1.52249092435895    6.59691942920717    7.68112126375593
H        -1.93238963104707    7.04172031276614    6.02841036879981
H        -0.30596913733137    7.34596297447380    6.63604747048316
C        -1.95672056599737    1.71419329177505    6.40672402401773
H        -1.66189695993161    0.84132786427105    5.82930209583343
H        -3.01304555984598    1.91362861458957    6.23114106283732
H        -1.83480214772379    1.48278291166237    7.46506289070972
C         0.64809694859987   10.21343727615261    1.54407781034533
H         0.08548153092837   11.04403944896968    1.96472564681130
H         0.63972099036276   10.30956892228310    0.46027375962010
H         1.67739581739740   10.29017485780867    1.88617002567977
C        -1.43236592531806    8.85352479781576    1.50147283163061
H        -1.95392498988959    9.73435727077581    1.87219957480541
H        -1.95318856445902    7.97285508035600    1.86667826727988
H        -1.48851214122639    8.85819149620192    0.41482470200592
C        -3.60635870767935    4.47330287663153    3.40461840373125
H        -4.23567130198377    3.63586333539802    3.11113125499110
H        -4.26096097423239    5.30063471840658    3.68351261045856
H        -3.02255891403615    4.19584924367522    4.27981216646536
C        -2.80538652565813    5.16289259647852   -1.50248099153421
H        -3.88974975400178    5.10460237662209   -1.55852725546913
H        -2.39239036903223    4.25921662023007   -1.95272316238746
H        -2.46680157829181    6.01415302338183   -2.08919637489330

