80
CSD_code = ITAHOC | q = 0 | S = 0 | Stoichiometry = C42H33AgIP3 | MND = 4
C         7.09837874568099    8.28441874770404   17.01588205759045
C         6.24433754179676    7.83792089239193   18.01619370528372
H         5.82081095102133    6.84327425159366   17.95546194405061
C         5.93608912799767    8.66484855898450   19.08090894058637
H         5.27397253867663    8.31567521287757   19.85958271711497
C         6.47365247963013    9.94027159369916   19.14500176294624
H         6.22694033513605   10.58814789717105   19.97335746947555
C         7.33040294029038   10.39116931758039   18.15667996433199
H         7.75077178308184   11.38491550329621   18.22133922102739
C         7.65560809964048    9.56524962400145   17.08858002517841
C         9.40525806983652   11.63706815794899   16.24213926594927
C         8.50933878400420   12.70507252506864   16.19951293144141
H         7.47903637383246   12.52195263773565   15.92034377290334
C         8.92914349482048   13.98198075736591   16.51558979465581
H         8.22758907026961   14.80337108810291   16.49124194722513
C        10.25458632426107   14.20936538489181   16.85217605626977
H        10.58599980704214   15.20807777330551   17.09478614785072
C        11.15576543985853   13.15807866613498   16.86247172144119
H        12.19204238899711   13.33753369337509   17.10928540801894
C        10.73894863201949   11.87531180783791   16.55342791643087
H        11.44949466243794   11.06070926132108   16.55418595144441
C        10.15384137723404    8.89112906528546   16.13427540884089
C        10.54617768399053    8.67201773391670   17.45196863373462
H        10.04455678409496    9.19257704482696   18.25803730450937
C        11.57416586410978    7.78982965229935   17.72510658137164
H        11.87502537516081    7.61764310088247   18.74852020298592
C        12.21461567959832    7.12371610714785   16.69208759172320
H        13.01042549917147    6.42807643846652   16.91322407096324
C        11.83483825999080    7.34776345940282   15.37949465660368
H        12.33466205319864    6.83355623077461   14.57261617563364
C        10.80708171632394    8.22990712943469   15.09995217024306
H        10.50360197124016    8.41020162499161   14.07182884409438
C         8.61081487456210    5.97940430987547   16.32382255974001
C         8.89884806198466    5.85199047160308   17.67650524477812
H         8.44267813474957    6.51571727362896   18.39807599371847
C         9.77478800771179    4.86833245049103   18.10033153479704
H         9.99446398828889    4.76785465500777   19.15356679010597
C        10.37037116543461    4.01797663443451   17.18432933418860
H        11.05410888481903    3.25413312950159   17.52405466995512
C        10.09652466781296    4.15135470504538   15.83198227868468
H        10.56711558586278    3.49524731049122   15.11490418171780
C         9.22800604673486    5.13469111345347   15.40251232746504
H         9.01691113697265    5.26307957686501   14.34669170928582
C         4.91612244876925    7.07311026625817   14.79737568648352
C         3.69833409089367    6.44657018655385   14.56171144283542
H         2.88915611348927    7.00060957434394   14.10535589288437
C         3.52599310376426    5.11650166421457   14.90135607339658
H         2.57726799433441    4.63443773839906   14.71700115097757
C         4.56959961238452    4.40194558117091   15.46875523591078
H         4.43544039676099    3.36139665827918   15.72565096320719
C         5.78812588866667    5.01340057507793   15.70400472000807
H         6.60257808513430    4.45052943982325   16.13925812384456
C         5.96975737132946    6.35200466176135   15.37619329147642
C         3.98291163199013    9.06134210238478   13.04197812729240
C         4.33491045086401    8.62416967071275   11.76654789203555
H         5.31075935092617    8.17777170566068   11.60521197133411
C         3.45225535578928    8.76971556835935   10.71410140779939
H         3.73162118820151    8.43016645184258    9.72829079493405
C         2.21795502539154    9.36360822854258   10.92645083254910
H         1.52811631796571    9.48474745866475   10.10445749279549
C         1.87038128464427    9.81174973248615   12.19040869399666
H         0.91041981706190   10.28033503597697   12.35373308820932
C         2.74738683120692    9.66464805462262   13.25045831823109
H         2.47169194614643   10.01865510019124   14.23469562529543
C         4.52024877612664    9.74356371064997   15.72286934222362
C         3.71401741628937    9.19637453592856   16.71267742445228
H         3.47177639491431    8.14238043541500   16.69521283105827
C         3.21878797676886   10.00740136967029   17.71816856016717
H         2.58690579031887    9.58223491606463   18.48466602596105
C         3.52802066517096   11.35692316107979   17.74621779088191
H         3.13995118859406   11.98251044131190   18.53641042233908
C         4.33353568811302   11.90590972155320   16.76103852490839
H         4.57375832011116   12.95913176087876   16.78164303050001
C         4.82823605537421   11.10100865855452   15.75409457292551
H         5.45423678666138   11.51484871344070   14.97109028891335
P         7.53495677739304    7.25099473391513   15.58985250846141
P         8.77412548877252   10.00942957236975   15.72524264709883
P         5.23621906839533    8.80365743441270   14.34049543823251
Ag        7.69915697293423    8.91291380212009   13.65889765301246
I         8.67279191898409    8.70388900709433   11.18988912698432

