65
CSD_code = ITAJUI | q = 0 | S = 0 | Stoichiometry = C26H33BrN3ORh | MND = 7
Rh        5.61562806847212   12.43065286569583    7.89299312697373
Br        5.98833808094876   14.64285471665442    6.96935953569728
N         3.05798072410643   13.16224860297213    8.02455277911168
C         1.92215081082089   13.74548467208716    8.71091547281048
C         0.73506700420742   13.40697119069713    7.76758373507862
O         1.34372333185053   12.87871181318249    6.59233254699434
C         2.65442806974109   12.76879441429141    6.88811736737664
C         2.11300071490003   15.26099425145221    8.97725979498005
C         2.31587184951119   16.03200522868431    7.67253945328070
C         0.88869718828063   15.79015177724149    9.72946975294786
C         3.35479407934458   15.44573221038034    9.84836706576753
N         3.45989203731538   12.19221208597848    5.94584583450369
C         3.09244244172893   11.79596443940607    4.67540046336594
C         4.19117317649098   11.24843345763664    4.12065573077344
N         5.20626200858585   11.31756129657110    5.04845117880840
C         4.77795188180912   11.89982172233158    6.18456759532201
C         6.48006390933524   10.70836330588092    4.86941319908187
C         7.55805021796158   11.45516740401173    4.39395989397832
C         8.78211304723986   10.81635944181492    4.25949264886671
C         8.94422934602331    9.47263190116239    4.56671519001177
C         7.84350622878386    8.74843511961205    5.00060997846025
C         6.60219744757677    9.34782999239041    5.15386278494257
C         7.39497221800181   12.89375469329544    4.03324940821430
C        10.28598546154722    8.82405573641643    4.41444022558356
C         5.41124088847250    8.54871848119389    5.59649120189314
C         7.18722739976248   12.66021108922104    9.36226209548875
C         5.96946550258792   12.79953693278242    9.99110092752203
C         5.55872250820368   11.39826506096728   10.44290196289401
C         5.26835740766649   10.73584256002498    9.09569463938788
C         6.50967768318917   10.60172520900075    8.46122968224794
C         7.54262472006920   11.17706948651239    9.42787545313293
C         6.92907116789368   10.79195604097645   10.78213960131466
H         1.81049544104046   13.24430855809302    9.67873788223393
H         0.14091756392824   14.27514831392751    7.48385924030325
H         0.07463446991974   12.64166212392504    8.18731723147919
H         2.45397051617788   17.08758245606476    7.89120762295936
H         3.20773259072424   15.67963174061529    7.16064003215739
H         1.46441492408187   15.93656096280622    7.00216061919568
H         1.03931324750682   16.83791776964117    9.97731471859891
H        -0.01881603407364   15.71270456272252    9.13524499981955
H         0.73873941522631   15.23851629259273   10.65557642530871
H         3.48395454189199   16.49553494737268   10.09913723519648
H         3.26900294178707   14.87472384196169   10.77090066262793
H         4.23095341626335   15.11551888645959    9.29993815751161
H         2.10193975830338   11.94956034197827    4.30266729970715
H         4.34583187467098   10.82100038275466    3.15096490354043
H         9.63054938194707   11.38247358604135    3.90377950647725
H         7.95041968729302    7.69682811551076    5.22601710227928
H         8.27069749685646   13.26017922267333    3.50577388453349
H         6.51656144150016   13.04423209237620    3.40767072495413
H         7.25945840159133   13.49738974857648    4.93038560615950
H        10.24748809582688    7.77382436724934    4.69172239256320
H        10.62796604756932    8.89996245669077    3.38315727791067
H        11.01990711576375    9.32465635503386    5.04428635944198
H         5.72377338120758    7.58905217724822    6.00012363538065
H         4.84173129205178    9.07993528952660    6.35806863460826
H         4.74683674854955    8.36259818991391    4.75151390333346
H         7.91071685983966   13.43939226566583    9.15848386915011
H         5.55604072661463   13.70547936151547   10.41109524658946
H         4.77706218003592   11.33704580414203   11.19643715975932
H         4.39446084870012   10.11855682176208    8.93071339991328
H         6.77944483716132    9.87266287628714    7.70982283666577
H         8.58140605543713   10.91255386131005    9.24533291956062
H         6.89465478983119    9.71362450423196   10.94571244021280
H         7.41633332232814   11.27956452282791   11.62768574306011

