114
CSD_code = ITAPID | q = 0 | S = 0 | Stoichiometry = C42H51N5O12P3Y | MND = 9
Y        -1.48303931898598    6.20421478711840    5.59078820475155
P        -0.38731793618400    6.68965448139929    8.83608240880701
P        -3.74071462222218    7.39790784623225    7.62276237234903
P        -3.79304957651075    3.99893637252084    7.40018025420325
O        -0.25526990387402    6.31143115309345    7.40023641165699
O        -2.44879705730714    7.50223703927667    6.90294270855293
O        -2.57460930634713    4.79893408157135    7.06690968300084
O        -0.31080992894955    4.31670208908380    5.56768386707671
O        -1.73140762061260    4.78451381426660    4.06414501170408
O        -0.65765090891417    2.95541174468980    3.97883691735997
O         0.08325612578394    6.59751535685985    4.18742233911487
O        -0.44286896591754    8.25738558362352    5.39000907797754
O         0.74483225650503    8.54884607849224    3.65313983246190
O        -3.86936575057930    6.04431281512090    5.15982266052001
O        -2.69666437800320    7.55713829852806    4.29828798478682
O        -4.44520912232900    8.05628639430168    5.37804573167421
N        -0.87992487332227    4.00082497211815    4.51687311608017
N         0.13394446407092    7.82803612400026    4.38175682739383
N        -3.66182347994132    7.23235591538538    4.96565268023906
N        -4.15571822271044    2.67832915007470    6.44003356430813
N         0.14554162668614    8.22172707970277    9.23068186957262
C        -2.01751767023230    6.54149804884323    9.73238959162902
C        -3.32974640335140    6.68618878861426    9.26662622346837
C        -4.39216388368375    6.41231652756091   10.12538224145513
H        -5.40119669516380    6.47630394942618    9.74437652175591
C        -4.19573651780546    6.05904031321845   11.44588140239036
H        -5.04025846131800    5.85821681060744   12.08739879934102
C        -2.90428507373328    5.98055747945713   11.92928254880552
H        -2.71857620456634    5.73166058408805   12.96309150770032
C        -1.84242964635622    6.20096545314932   11.07234096034508
H        -0.84492891140619    6.09690156896125   11.46271852186064
C        -5.31167058154139    5.01113998341695    7.38466371889722
C        -5.25746086366844    6.39955619858425    7.28949597164416
C        -6.44092768725312    7.12083357727012    7.17710863547588
H        -6.38808909216915    8.19038786474871    7.04608339963922
C        -7.66809928391944    6.48200329837611    7.19538836094139
H        -8.57448103910230    7.05941276227157    7.09442779246706
C        -7.72641267300300    5.10791413736832    7.35301522795841
H        -8.67845336436239    4.60022083103077    7.39168890105758
C        -6.55111127928610    4.38370022173672    7.43185192614302
H        -6.58587573812261    3.30865846295165    7.50725450625344
C         0.71914411589043    5.51040223493520    9.69946188917471
C         1.34169844908704    5.74610808418853   10.92129226440484
H         1.20379311996538    6.69343217347402   11.42342864231387
C         2.16605016963161    4.78591737979592   11.47922363434336
H         2.64992365068088    4.97824511472897   12.42572875829283
C         2.37705392629756    3.58285154674179   10.82332910376120
H         3.01681645044551    2.83362681483709   11.26560997633006
C         1.78623054159833    3.35537680539667    9.59189472230647
H         1.96915367364131    2.43142379583878    9.06438706212472
C         0.96786431450779    4.31933443722451    9.02683812619458
H         0.54096489121775    4.17221112126447    8.04365189185913
C        -3.62810346555684    3.42311564972010    9.12759245657477
C        -2.35069967250136    3.40387376044414    9.66927736311614
H        -1.52142280215355    3.74862873986774    9.06821873398740
C        -2.13927235278438    2.95950750789380   10.96207126355388
H        -1.13646975449723    2.93647479506236   11.36285028580926
C        -3.21383112934807    2.54916487456476   11.73215029554083
H        -3.05552172455634    2.19535499232761   12.73987177278935
C        -4.49659604682012    2.60093658199282   11.20978989266872
H        -5.33745299611866    2.29448813803984   11.81432216592024
C        -4.70601903273327    3.03645713852424    9.91386802602310
H        -5.70750022554399    3.06802876297619    9.51555030938940
C        -4.27988527422673    9.09300026279882    8.02421869993728
C        -3.71065209894352   10.10248179369393    7.25695805422454
H        -3.02521299541679    9.83623707303243    6.46623557501213
C        -4.02794093829531   11.42658356828651    7.50328091177034
H        -3.59267935554774   12.20463527535832    6.89435578947444
C        -4.90036596775022   11.75157686245421    8.52861448401013
H        -5.14937485584135   12.78420028536818    8.72370877546549
C        -5.45269956688930   10.74817297847746    9.30844959755833
H        -6.12822665903507   10.99820444830556   10.11349034071377
C        -5.14707161369328    9.42198414339569    9.05879106904525
H        -5.58763982918719    8.65143364812590    9.67255247369969
C        -0.82141576072952    9.30150222530492    9.41455733219396
H        -1.79902821221586    8.86226451102652    9.16973630981264
C         1.57263732147295    8.41520588578613    8.95079141425972
H         1.97962459414774    7.39423293310114    8.98171212113761
C        -3.48449267058748    1.38305027468734    6.59570425081369
H        -3.71693954300021    0.81517098944270    5.69131190071115
C        -4.95485301063460    2.85502743623367    5.21785148446627
H        -5.37706993228264    3.86252566588622    5.27514132287592
C        -0.88385789686127    9.75477122777450   10.87643819600784
H        -0.99438262214100    8.89432253452295   11.53289925353913
H        -1.74512469538044   10.40448582536863   11.01478552887203
H         0.00876737441406   10.30236339895134   11.16169377677855
C        -0.63585809927312   10.48860593955825    8.47746715098356
H        -0.60285563987094   10.14415453838176    7.44823229968089
H         0.26933630780344   11.04194907672879    8.70867459396606
H        -1.48342793458790   11.16063452692338    8.59358701858045
C         2.27862796557357    9.22963296459116   10.03288206624497
H         2.04611476281132    8.85138605921017   11.02486860653802
H         1.99902517789194   10.27797570007853    9.98187055547349
H         3.35329797399151    9.16025117044358    9.88152253670976
C         1.89718968584125    8.95892916195942    7.55848265307772
H         1.19134310705912    8.55822833752528    6.83832715469380
H         2.89907357231247    8.64439072388560    7.27482192892494
H         1.86056527780432   10.04288096433219    7.52010324004233
C        -1.96754377142094    1.50946021401946    6.68764861494284
H        -1.54617750703809    1.80833522211196    5.73193974916622
H        -1.53368925462751    0.55064225360780    6.96466112784878
H        -1.69263793431777    2.24626449312180    7.43737584147113
C        -4.03562802185170    0.58133979854246    7.77943544224474
H        -5.11892194362732    0.65588873196031    7.82405828288395
H        -3.62182919810591    0.92697937669405    8.72147248794649
H        -3.77122593284014   -0.46665961182568    7.65685777756732
C        -4.13411699761881    2.79460148351092    3.93220368219088
H        -3.47544731090804    3.65428830275671    3.87126251237234
H        -4.80764948705618    2.82566785635857    3.07911400632997
H        -3.53927336975083    1.88745046974813    3.86418422281209
C        -6.09718126148688    1.83405648093789    5.15119405321519
H        -6.60970419673846    1.73455029057955    6.10403254056822
H        -5.72965796685650    0.85315439565361    4.86021619412738
H        -6.82078032511294    2.15618934225043    4.40705607771902

