97
CSD_code = ITARUR | q = 0 | S = 0 | Stoichiometry = C42H49ClN4Ni | MND = 4
Ni        6.79650608937766   16.01892014432958    7.71167191179906
Cl        4.70057202644049   16.32920347963026    8.05993318731526
N         7.25169072094287   18.76203346699718    7.05153275701825
N         6.93090349250372   18.53480303585150    9.16049504352859
N         5.77374334712953   13.63937605970972    6.39443231301594
N         6.60201253051479   13.23501525349875    8.33137693254783
C         7.06744922222699   17.83620162520634    8.01411832119141
C         7.23523877392069   20.02428128354362    7.58581032096576
H         7.36553250179971   20.89888219508114    6.98134632170896
C         7.03340043018409   19.88042282313971    8.91387478491299
H         6.97176107503890   20.60729677211250    9.69816369003503
C         6.67224559594366   18.00273842317314   10.45350469588497
C         7.68558916496758   17.33651116756092   11.14068287095790
C         7.42563014360941   16.87663348153131   12.42317327863441
H         8.21227097820400   16.37208621186461   12.96392905072118
C         6.18731419965822   17.05234304402456   13.01806294615720
C         5.19347739342526   17.70983757246717   12.30677993259338
H         4.22064203259821   17.84419667900206   12.75836480236195
C         5.41465001916024   18.20114861235018   11.03018036611377
C         9.02283064417923   17.10833926864320   10.50904819967093
H         9.41674861150038   18.02659792641377   10.07440609812042
H         8.91875443546812   16.37181978795803    9.70904798949682
H         9.73219348656230   16.72696415983530   11.23832082949174
C         5.91156461056695   16.54773547631434   14.40310013047196
H         5.59715514879472   17.36558566729320   15.05042549005077
H         6.79712512554582   16.08622230987694   14.83340197408812
H         5.10675717853236   15.81309275215605   14.38618039849725
C         4.31631941558617   18.88465887279011   10.27800086544788
H         4.60659210678337   19.88414200977292    9.95756129276236
H         3.42334476216202   18.96128403246601   10.89246806827407
H         4.07636888818304   18.29997109031558    9.38835095750595
C         7.47373807969471   18.48934003361196    5.67339341012851
C         6.39029884939243   18.41763181751155    4.79966907111872
C         6.64764887812202   18.20697677604667    3.45214066914583
H         5.81554316454781   18.16066466441736    2.76567183243918
C         7.93936728654857   18.05980956274200    2.97432206793327
C         8.99847235880402   18.12834746807683    3.87037005730774
H        10.00955562115477   18.01307451779507    3.50590677480990
C         8.78691490358536   18.35136463556937    5.22041943597119
C         4.99202123446267   18.56642370809162    5.30477809511733
H         4.77364698856703   17.78710025205977    6.03596567571059
H         4.27648141795297   18.47957855143570    4.49200280767512
H         4.85395264805691   19.52900050872426    5.79796543130415
C         8.20701096872105   17.84002353651427    1.51528574315163
H         7.27972366437591   17.81331193499128    0.94851966450474
H         8.73927614604392   16.90162248686267    1.36241469855602
H         8.83113923050993   18.64066350801929    1.11972649058874
C         9.93150663676380   18.44429648055855    6.18304749770413
H        10.87720366726473   18.28798970543531    5.67133698229397
H         9.82315132666523   17.69013759436312    6.96219764425560
H         9.95272114184590   19.42214898272688    6.66458801947859
C         6.43145912843941   14.21575496101135    7.42190854636823
C         5.54030280725665   12.31393207897593    6.66063700009656
H         5.04433948336979   11.67358244973786    5.95975589540624
C         6.06160893352175   12.05864341589113    7.88048965833268
H         6.09644069996163   11.15845725277531    8.45992630009537
C         7.28205656874845   13.36615707973681    9.57372365969764
C         8.65587120169108   13.12142694038759    9.61473337848619
C         9.30503809290793   13.20960898307652   10.83456535015685
H        10.36980234747489   13.02904375884683   10.88042105141642
C         8.61466839044444   13.51402983495675   12.00069564280536
C         7.25026978012141   13.74235290273339   11.93044288705906
H         6.70038288591690   13.97409970884303   12.83045500934148
C         6.56303510416869   13.67792763048619   10.72621325073377
C         9.39881390127396   12.76998462055580    8.36188349269538
H        10.45529431048892   12.62460024036981    8.57000668004708
H         9.29043811495642   13.56969996656885    7.62959583005062
H         9.00064628445918   11.85618083247501    7.92038760160897
C         9.34719804039917   13.58151765779703   13.30756297057011
H         9.83757806445924   12.63141207364918   13.51699542289308
H         8.66663275020715   13.80700085061016   14.12493668684067
H        10.11944218299132   14.34970354434341   13.27199758287802
C         5.09193987249770   13.93226353015555   10.66254619514952
H         4.56263299643888   13.06980682995902   10.25657254631193
H         4.88680941596100   14.78204866165663   10.01030442654145
H         4.69623530897791   14.15694223502629   11.64906304339403
C         5.33148991542207   14.27618460290433    5.20233890289074
C         3.96388200060136   14.49811741668411    5.01860109935173
C         3.54740177864699   15.07893533125559    3.83150738603662
H         2.49378065459689   15.26887413199502    3.68239707715878
C         4.44672933498131   15.41870646774334    2.83059637870950
C         5.79515326897233   15.18053565914694    3.03863638627682
H         6.50856146694947   15.43395635427343    2.26870665707941
C         6.25825342793536   14.61805387709100    4.21897946075648
C         2.97430991244491   14.15705241537798    6.08763099063779
H         1.96408048718308   14.38825321565208    5.76085040708743
H         3.19423250578913   14.74596678914442    6.97982333852860
H         3.02126279219967   13.10333549286337    6.35893279785359
C         3.95289487264910   16.02788977429455    1.55223713293298
H         4.77656331612145   16.22526727635483    0.87036772709652
H         3.43166665328958   16.96368266134096    1.75268705408520
H         3.24864779973146   15.35824697620317    1.05971504110022
C         7.72287005176199   14.39564490109583    4.43035854785827
H         7.92158733073707   13.38746509808847    4.79270403873535
H         8.08694591357559   15.10274692958674    5.17861592022666
H         8.27296357648934   14.55637606196352    3.50723540376608
H         8.17812790828705   15.81647911595939    7.48099025193832

