90
CSD_code = ITEHOF | q = 0 | S = 0 | Stoichiometry = C34H47Cl2N2O3PRu | MND = 5
Ru        4.93255555137627    4.39966676408075    2.01819466377705
Cl        4.34992700701123    3.52636693071806    4.13274871532859
Cl        5.00212777361291    4.88669140339674   -0.32102685406107
C         3.90287871805560    6.05266943583156    2.61257592982662
N         2.57487400378805    6.19838913030498    2.66826688983302
C         2.15263058595876    7.37672281486628    3.42321812034202
H         1.54639260355698    7.07508404874256    4.28138113855921
H         1.54675967445246    8.03230641772944    2.78914650663908
C         3.48042151398953    8.00104182340489    3.83829631030299
H         3.63486911006867    9.00137825261964    3.41940375522477
H         3.59386999300283    8.06438433216372    4.92335929398180
N         4.45454068443712    7.06689405889819    3.28264600554972
C         1.56201010244707    5.48755163368815    1.96590302200210
C         0.74122723255782    4.58968769336231    2.65439790735730
C        -0.28851917929148    3.97059830920813    1.96134491832551
H        -0.92499614046558    3.27040446771334    2.48378122227032
C        -0.52124179339116    4.22844076004181    0.61760945733772
C         0.29239546421656    5.14210503566544   -0.03429220073615
H         0.11439615573446    5.36434185630011   -1.07673833468181
C         1.32805944926940    5.79335542745772    0.62188623601522
C         0.95347791925476    4.29388980387657    4.10666095254772
H         0.50723178191928    5.07280731678840    4.72637272509211
H         2.01513316572784    4.23351898197118    4.34423967268467
H         0.48395426033140    3.35003120207276    4.37287591133906
C        -1.64972398128790    3.55045244214088   -0.09893443568049
H        -2.59495459762612    4.03120234482784    0.15461127567975
H        -1.71932635057319    2.50460048200279    0.19366769795395
H        -1.51730949534692    3.60786635062646   -1.17646436490179
C         2.17115471204336    6.79031932867559   -0.10617472982935
H         2.37224156437807    7.66825197296331    0.50447924140715
H         1.68248540011485    7.10445440302451   -1.02461633142175
H         3.13013514284869    6.33963675674664   -0.36912637050362
C         5.83002203745518    7.38248345123360    3.43428638966914
C         6.47554091613213    8.08314756648650    2.40992115783253
C         7.79423874778154    8.46740086369171    2.59957676028566
H         8.30470944356296    9.00080404087363    1.80988732272219
C         8.46961465815717    8.18166326510747    3.77724133527030
C         7.79921854894420    7.50120163402121    4.78369041923528
H         8.31920435028426    7.27203011684654    5.70270741705267
C         6.48094259039160    7.09883577933112    4.63765496727305
C         5.75867639603070    8.38358702289077    1.12915055436937
H         5.38291654383236    7.46295840879006    0.68065988421713
H         6.42512091792183    8.86859122145480    0.42118683113106
H         4.90757840578704    9.04090936197400    1.30402038319826
C         9.89185489513084    8.60806088789757    3.97647914622203
H         9.93694918390688    9.45612053654889    4.65992908457869
H        10.34703905567181    8.90353571465070    3.03474864249156
H        10.47208231700128    7.79683590199449    4.41138703905728
C         5.78171408282608    6.36771584976220    5.73913069402108
H         5.14537822601895    5.58263159640045    5.33343817406695
H         5.16097923915704    7.04934615262079    6.32199259417324
H         6.50716162570375    5.91745767549033    6.41094148642510
C         6.70279376471085    5.11795229321730    2.14413586356192
H         6.99993662492247    5.80233278721974    1.33724181393203
C         7.80512290846080    4.78833652932644    2.98464465336776
C         9.08851327594988    5.25465079761241    2.63740247304023
H         9.20496056575605    5.85135231876875    1.74384733046156
C        10.19011219896917    4.95160343177022    3.40770625220017
H        11.16695999751382    5.31050131199445    3.11554179184460
C        10.04715345264621    4.18720964929531    4.55656476403969
H        10.91104843294408    3.95186900513158    5.16155482791300
C         8.79006618147515    3.72958634955660    4.92422583204687
H         8.67681977689693    3.13984435645496    5.82233664585266
C         7.68369324929899    4.01998829048690    4.15466280757702
H         6.71137770461174    3.66508299172208    4.45213133486654
P         5.81008616420766    2.31428010821770    1.55576569484257
O         4.70313394484995    1.17939898096084    1.27420615704162
C         3.61943323184644    1.49995434886773    0.41269689432722
H         3.11388262475789    0.54985449161009    0.21345693350001
H         3.99931333109812    1.90886870200663   -0.53064233662538
C         2.67172049867233    2.48266662064140    1.07717664359198
H         1.81575573430691    2.68398786020068    0.43808606046600
H         3.18937412497701    3.44820611645225    1.25734382998312
H         2.32838776830197    2.08886462744640    2.03342728610593
O         6.60669011880295    1.62107106117838    2.74554403636904
C         7.06071725520571    0.27010630885956    2.66462935291334
H         7.30225719913583    0.02592847147859    1.62525812339730
H         6.25332608326637   -0.38821750218440    2.99833778326685
C         8.27812328162350    0.12259096967574    3.56042812039215
H         8.62231957435270   -0.90821141078644    3.54744891024511
H         8.01887868052953    0.40204255227703    4.57774834723971
H         9.07969758703190    0.77314123163774    3.21961063447955
O         6.69307361457105    2.00834243209088    0.22890775078190
C         7.73327757727844    2.85216231424938   -0.23272780612797
H         7.46377431474704    3.90009536895538   -0.06144399624821
H         7.79467303264490    2.67626206473392   -1.31122760360539
C         9.05602639308545    2.53247995701192    0.44446284862412
H         9.83781188551204    3.17154288409049    0.04276384075667
H         9.32531050277636    1.49258294604036    0.27298817073760
H         8.97317712838939    2.70605935174610    1.51533370201151

