61
CSD_code = ITELIE | q = 1 | S = 0 | Stoichiometry = C19H36N3O2Zn(1+) | MND = 5
Zn        1.81707491649343    3.01738260224785    5.85689400413044
C         0.17306123826583    1.31518456847875    7.21800278758369
C         0.22384342836370    0.23558354329411    8.10646747113163
H         1.01461223202904   -0.48883001368976    7.98500276183058
C        -0.71716253758743    0.08960530710792    9.10449149716540
H        -0.65728817237199   -0.75371132172198    9.77519013083412
C        -1.73242138141297    1.02092066390100    9.24871498862169
H        -2.46675417679730    0.91475789588295   10.03091747239547
C        -1.80464579079153    2.08480241381463    8.36921066585418
H        -2.60676380798298    2.80381663253582    8.46374385632609
C        -0.87356263651177    2.24448481621395    7.35147113379625
C        -1.02249813428343    3.37165833228322    6.36510521000080
H        -1.90486216422176    3.97398215055230    6.61847886777396
H        -1.17264375346315    2.94340267337748    5.37082940435467
C         0.04272823903171    5.23132999414864    5.23570308477509
H         0.71932705901127    6.06143608971018    5.44570829391794
H        -0.97777781466869    5.63358030170511    5.19692014085667
C         0.38705068524614    4.62208699188761    3.87615507319383
H        -0.37266303233210    3.88571253016546    3.61790965322127
H         0.35910602263372    5.41038082963305    3.11774955256940
C         0.41071962858280    4.87066484805013    7.60638988841692
H         0.06870929603728    4.17650945530523    8.37661456752675
H        -0.16503958357346    5.79846025103580    7.70967224600488
C         1.89544063642559    5.17495847667519    7.80813034346624
H         2.20593175155541    5.95052333312264    7.10387805239937
H         2.02975839206239    5.56630909334343    8.82254173845211
C         2.67956660792030    3.12243790763403    8.77770007217790
H         1.63067489910911    2.87731949624248    8.95163865958641
H         3.04662763574271    3.67358489300297    9.65028334557872
C         3.43666878237302    1.81135624186638    8.64014380088441
H         3.04427055357111    1.23948987429430    7.80308055901623
H         3.27588224220506    1.22759214813518    9.54273211021067
H         4.50698002041718    1.96004390845393    8.52617170027976
C         4.13185232120710    4.41507594050518    7.28939661857233
H         4.09513315515314    5.05689352735323    6.40708598619677
H         4.70258276690748    3.52773455517422    7.01764818198528
C         4.86714435312093    5.15634466147018    8.40350565968138
H         4.33301859400372    6.04819391696708    8.71904831440875
H         5.83724763357052    5.46641308826649    8.02418968517201
H         5.03937427675729    4.52367905486680    9.26901099342469
C         1.77161330725788    2.97584097676044    2.77159339828816
H         1.50640428977426    3.47519018535857    1.83329171760017
H         2.81442800509691    2.65994648759088    2.70786911787671
C         0.88419804081231    1.74990633249789    2.94801758891884
H         0.93881260130536    1.36162633900561    3.96356453719598
H         1.21074660029043    0.97247102368949    2.26243980573612
H        -0.15658584952674    1.96293895227227    2.71784432812269
C         2.80719747626770    4.90566419756315    3.79268791220219
H         3.72523936114371    4.35170036853413    3.99878818071207
H         2.67185510058016    5.64291973552220    4.58511435939477
C         2.97292472943678    5.64439421765988    2.46596379630555
H         3.25484901173997    4.97186477749394    1.66182305705119
H         3.76910496743572    6.37534358100806    2.58029758681516
H         2.07422782787706    6.18126392791906    2.17497009989700
N         0.17039189901689    4.24252479541522    6.30682540797265
N         2.74415908291504    3.99269201502815    7.58217615600446
N         1.68965116638660    3.93977976034060    3.88894136783628
O         1.10903267450932    1.41801404607016    6.26831591959637
O         3.65369852742019    1.90641587215507    5.12946623013012
H         3.27340882162583    1.18584608286722    4.61296388057691
H         4.14543797683490    1.47710465195411    5.83791697799138

