76
CSD_code = ITENAY | q = 0 | S = 0 | Stoichiometry = C39H34P2Pt | MND = 4
Pt        4.49600970415297    7.66717516756917   10.35356531910427
P         6.56915713778463    8.55490380616190    9.74375608426846
P         3.46904414887914    8.88670563615103    8.65452804661002
C         5.19239959215902    6.63815982917906   11.96360517299121
C         2.76029792653349    6.85870323024266   11.04678480462412
C         6.51710851206774    6.38817664684658   12.29588517818745
H         7.31708159766803    6.64971708447906   11.60858285753443
C         6.86409838828922    5.78375550532507   13.49664534000880
H         7.90639466010253    5.60523684669507   13.72549945147646
C         5.88161158630528    5.41841783009220   14.39719542885213
H         6.15070894613388    4.96478288324275   15.34130586359167
C         4.54919766640483    5.61207472477309   14.07556912704330
H         3.78408800524378    5.29493956905235   14.77022869121207
C         4.19895031731682    6.20124137856317   12.86790858547574
C         2.83310674062496    6.33077155632045   12.35510680886810
C         1.68792104258219    5.89610111792108   13.00932120300044
H         1.74932709840079    5.50881011914426   14.01664946735645
C         0.45847938416268    5.95033947642680   12.37588246570867
H        -0.43190424339713    5.61610501008014   12.89067888196386
C         0.37768681453442    6.41276191185692   11.07618785618815
H        -0.57461843125933    6.43139450882841   10.56301866560796
C         1.51840156751450    6.86338208404463   10.42585255735842
H         1.41293298783098    7.21335985025776    9.40242790732968
C         6.68769335901701   10.09544949154170    8.71392514643297
H         6.45363947550767   10.94177815107791    9.36871126396473
H         7.72639039946139   10.21168071012955    8.39073443616828
C         5.75001573610444   10.08923884509629    7.50916391856378
H         5.81209891444803    9.12139167864556    6.99742374862934
H         6.07843640969575   10.85685605010265    6.80126024112854
C         4.30271224977988   10.36764865242067    7.90841279705106
H         3.72051786040370   10.69292982221978    7.04152908267788
H         4.26473377056728   11.17241707682265    8.65027943914419
C         7.72047461607233    9.08191915441810   11.05475492368607
C         9.09477323288038    8.89143852158103   11.05547390066729
H         9.57297763280486    8.36281922554706   10.24307290800387
C         9.84986035110106    9.35584922055180   12.11872406564830
H        10.91951965126414    9.20268413132659   12.12262290367462
C         9.24111276867897   10.00793915987344   13.17792218311236
H         9.83736645003520   10.36512102550738   14.00462028650041
C         7.86680154104406   10.18773276396450   13.18637670499888
H         7.38920745826327   10.68021987029647   14.02056839453452
C         7.11035599014362    9.72106408650621   12.13003073196584
H         6.02925986031385    9.81882320721814   12.13430447088268
C         7.44315301963411    7.33419422911437    8.71536988917301
C         8.57940960212979    7.57546906174366    7.94977249616312
H         9.03471274744408    8.55586766462752    7.92860757697160
C         9.13742544897537    6.55513770250104    7.20028580392166
H        10.02427522451747    6.74612203976140    6.61287581904185
C         8.56497808315663    5.29333080674176    7.19785038142054
H         9.00768628776946    4.50307506648977    6.60950815380746
C         7.42471330852164    5.04926601918554    7.94570279575965
H         6.97231267623048    4.06873745312752    7.94156216549144
C         6.86851039365478    6.06500021668231    8.69965743388597
H         5.97561552365729    5.88894733895873    9.30184042264509
C         3.05851321080170    7.88843346824359    7.19011561512491
C         2.60443811806073    8.37219510202867    5.96790730268440
H         2.45630455212700    9.43181760668277    5.81205661653378
C         2.34034899058077    7.49283044368826    4.93284802117245
H         1.98010480601669    7.87208123225282    3.98713934173273
C         2.53646258922961    6.13168449398409    5.10215956229687
H         2.32739054089406    5.45311459467417    4.28824654360727
C         3.00328739627405    5.64411252251359    6.31200813063655
H         3.16250349924594    4.58441351711336    6.44540476937563
C         3.26254286906973    6.51949695770406    7.34899434041374
H         3.62057166237422    6.15544641032556    8.31084228611744
C         1.95334435684271    9.72581224708153    9.21364576457622
C         1.99901459186490   10.13033765886365   10.54491072997333
H         2.88136201831719    9.88807601672530   11.13461652336167
C         0.92619617174185   10.78783326146607   11.11230872899553
H         0.96196546209140   11.09405323781197   12.14735586321606
C        -0.20461802491881   11.03768566141379   10.35045219268526
H        -1.05089492440360   11.54397738084876   10.79098544085306
C        -0.25880504923053   10.62495875007215    9.02970129659706
H        -1.14779370521311   10.80877111045781    8.44353807103834
C         0.81739757204796    9.96950433733724    8.45611260772125
H         0.75944210290913    9.62869977166541    7.43222000119026

