75
CSD_code = ITIFEY | q = 0 | S = 0 | Stoichiometry = C38H32Cl2O2Ti | MND = 8
Ti        4.32538121820725    3.03017008393729   15.47452040527752
Cl        4.17938635575115    1.30684322128941   16.84204634226958
Cl        2.13388357470268    3.16403413463626   15.32174805739139
O         4.59985232671836    4.22172621157596   16.59080837001331
O         4.54209803942445    7.66111310472938   20.85448334696069
C         4.58285843311775    5.02992442462781   17.64986872042047
C         3.75844165553450    6.17252976943581   17.65320522401068
C         3.77940902455920    7.01699438411733   18.74362509055254
H         3.15651499142170    7.89631920327383   18.77155448491300
C         4.59384863900850    6.75063524691524   19.84537765080352
C         5.37598843629283    5.60218225400037   19.85565696713143
H         5.98832800505957    5.35718147677453   20.70791111539715
C         5.37321121869576    4.73795826581793   18.77195527769964
C         2.84703661049946    6.37585124017400   16.46466566874927
H         2.25350750844513    5.45520869468249   16.36499153493007
C         3.60843258626074    6.57421980678696   15.17154786929463
C         2.94455564273332    6.36295354122259   13.96544921744955
H         1.93901741913963    5.96648865053223   13.97638429619284
C         3.54888714205291    6.68911522093893   12.76447925509135
H         3.01790765162575    6.53915188247649   11.83581397421929
C         4.83228277941984    7.21466235369861   12.75044956090419
H         5.30109509322634    7.47811648076316   11.81353874957710
C         5.51173552911158    7.39583276052455   13.94352298017931
H         6.51456223196510    7.79822304049803   13.93800614350085
C         4.90260255338052    7.08246239489109   15.14791445786603
H         5.42720049500343    7.25818702526008   16.07724268247416
C         1.88276721206028    7.52554622269737   16.65561848175868
C         2.27806034945854    8.83991551681842   16.43797115690477
H         3.28975638952860    9.04805932694220   16.12150983263350
C         1.38517317959892    9.88036517723684   16.62178539789950
H         1.70403510297679   10.89796209480954   16.44888738190149
C         0.08649723165982    9.62036970052087   17.02562317694849
H        -0.61025488986853   10.43322159128040   17.16780778723066
C        -0.31458722976493    8.31378680105257   17.24424250179837
H        -1.32656170044018    8.10371503128342   17.55798924810411
C         0.57860054506904    7.27310456577311   17.05894819335565
H         0.26181299474085    6.25392231559076   17.22822137423849
C         5.31591617342664    7.43179198573701   22.00761668670099
H         5.11067242801955    8.27108944152551   22.67008100481572
H         6.38574018570089    7.40608126367593   21.77653172660154
H         5.03113443731318    6.49925626868020   22.50488291761679
C         6.16184987656191    3.44740922052693   18.75373551646359
H         5.44418783407042    2.64430658376007   18.53174703290888
C         7.21694660358866    3.43306681590013   17.66942049449116
C         7.69553030135679    2.20764323294816   17.21355075441269
H         7.24182292652407    1.29485936645751   17.57470606371040
C         8.76258952888168    2.15410936441434   16.33421199525615
H         9.13998031163272    1.19833299765733   16.00096539534326
C         9.35568802681677    3.32426432746085   15.88612417172158
H        10.19367698043851    3.28229059944410   15.20592125419092
C         8.86617885685996    4.54775875010819   16.31210684674967
H         9.32049031700379    5.46333798648403   15.96133155680712
C         7.80589354408240    4.60280085853679   17.20210147631233
H         7.44568487933941    5.56100190523022   17.55113872636927
C         6.79846279448995    3.13562176673868   20.08983170153471
C         6.15131899429695    2.28580746578294   20.97740804346135
H         5.20669953160135    1.84319553408759   20.69567473726934
C         6.70613015874124    2.00349898217287   22.21330266937533
H         6.19276284486961    1.34013065568533   22.89371269170094
C         7.91728777573003    2.56733560411083   22.57635460205503
H         8.35222339218529    2.34640337845773   23.53986183145974
C         8.57034740525179    3.41359038646452   21.69628337755561
H         9.51698014652731    3.85501567541682   21.97252765377554
C         8.01484181077277    3.69637563127199   20.46097178146889
H         8.52998839829608    4.35605422722572   19.77777453280411
C         6.23022372614373    3.06586989783324   14.21251176635549
H         7.19357502333828    3.46427976995855   14.49991234188467
C         5.83123528854831    1.71068824666472   14.28375370890048
H         6.42116985764543    0.89631219278994   14.68419022266174
C         4.58965706374763    1.58394256848911   13.62697283869649
H         4.05867211161165    0.65566203098826   13.45070377095021
C         4.22283973944511    2.85087338732041   13.13613295569851
H         3.36573653736598    3.06766299381567   12.51088746393090
C         5.22920258996349    3.77382926803770   13.50384820407830
H         5.30973725151833    4.79519615081562   13.16033750782005

