86
CSD_code = ITIFIB | q = 0 | S = 0 | Stoichiometry = C41H36N4OP2PdS | MND = 4
Pd        4.31025562157218    2.89045707229713   14.86068750049095
S         4.34337055480121    5.21284540364500   15.11539751273391
O         7.50291807560838    3.01133380791427   18.13545021672401
N         5.95771541505176    4.11342431509691   16.88679313062596
N         5.36610941859105    2.93748436417475   16.55310276319491
H         5.98174639680704    2.19720650638411   16.90646066922600
N         6.85498396775164    6.50117554323872   17.74069809309902
N         5.90225215069459    6.45611379408540   16.83654819421020
C         5.49029355833639    5.28986539314893   16.40492202207119
C         7.03288575544214    4.09372877760031   17.78790113688423
C         7.42994501824758    5.41820155538082   18.18571787971482
C         8.53945737680161    5.55836424170908   19.18342155628122
H         8.86759738076326    6.59799851620386   19.18811199319347
H         9.36790226269447    4.91454461062405   18.87863333952298
C         8.07207347414418    5.14269624793292   20.57820740138508
H         8.88208470330925    5.25221463940147   21.29586928628852
H         7.75447516330631    4.10270902345940   20.56633744272222
H         7.23651920560949    5.76279444789109   20.89577681653486
P         4.77479515969029    0.66869795709329   14.65066060783195
C         3.25949202956449   -0.28034030100047   14.96420916522618
C         2.80582304906428   -1.39245785531969   14.27067107912127
H         3.36543182810722   -1.78135591357441   13.43372117872828
C         1.61435789632813   -1.99065979467247   14.64595608647717
H         1.26042623226492   -2.85705233970418   14.10711393664559
C         0.87728095089453   -1.48574448529534   15.70329437287041
H        -0.04893702576838   -1.96124441414160   15.98965439012532
C         1.32118114211909   -0.36573274692845   16.39058333030619
H         0.74155455934801    0.03216947488392   17.21029946922822
C         2.50562647744928    0.23804277203597   16.01851547235930
H         2.87895639253055    1.12099559679416   16.54422137448072
C         5.47915766891504    0.21171747085269   13.03934466128185
C         5.77944662258568    1.25686235092892   12.17081510271204
H         5.56816978418643    2.28172703352283   12.48642245944429
C         6.35120232420285    0.99666525886446   10.93869087902859
H         6.57770713719670    1.80978893158414   10.26474050783475
C         6.63341630315303   -0.31082733627749   10.57643100567639
H         7.07464068250264   -0.51987071611974    9.61331271313438
C         6.37263043288598   -1.35075071810170   11.45574380171721
H         6.62057440876440   -2.36492950021428   11.17883900167254
C         5.80736472470412   -1.09452689721659   12.69191044169054
H         5.63931691559487   -1.89910380945973   13.39411557119056
C         5.99899743595333   -0.07889551704443   15.76713615475729
C         7.29194693897261    0.43910621368361   15.68074547449852
H         7.50151526940051    1.21608581569930   14.95173035120939
C         8.27939866155684   -0.01500136841174   16.53084918969127
H         9.27372453665378    0.40024910487021   16.47566785345896
C         7.98075382143528   -0.98842402174972   17.47252536983772
H         8.74786913315720   -1.33498393209098   18.14818768290517
C         6.69963322797451   -1.50641848061197   17.55829601726307
H         6.46983465278752   -2.26053890626433   18.29676402035882
C         5.70212450563683   -1.05310777984912   16.71128771669749
H         4.69810138491103   -1.44762613544013   16.78777598015125
P         2.72413745552260    3.03610743268037   13.24246045056831
C         1.83364399235043    1.56762475625148   12.63190193378246
C         0.62744035249835    1.16494510609526   13.19496542106915
H         0.18387501185142    1.74892564519949   13.98913083907755
C        -0.00771155917722    0.02671107449919   12.73290610202102
H        -0.94987082283902   -0.27362123071136   13.16691936095678
C         0.55817022395869   -0.72433186721942   11.71637149848233
H         0.05786276848388   -1.61068243219682   11.35575022840805
C         1.76750792909935   -0.33637362467971   11.16229749908993
H         2.21446105839106   -0.92031126510271   10.37083094245571
C         2.40380913385768    0.80257730424556   11.61703480901056
H         3.34165085970438    1.11358166509568   11.17693775672259
C         1.38328203786498    4.01795329886763   13.98979138643553
C         0.50751880437951    4.81609506761355   13.26564325727955
H         0.60589625279067    4.89538774098099   12.19273556955378
C        -0.47684270261671    5.52937315211782   13.92796621119648
H        -1.14985802559840    6.16027346907540   13.36606950454550
C        -0.59540487208680    5.44440083569609   15.30496637119283
H        -1.36117535566928    6.00905445895354   15.81570082006031
C         0.27771503579907    4.64925209847343   16.03128241713676
H         0.19385863935117    4.59607809338561   17.10664602633078
C         1.26833576281050    3.94214450495350   15.37759821121937
H         1.98937284650493    3.34056175255645   15.94394810613841
C         3.15308597505898    3.89706718767362   11.69943443385263
C         2.34806583889239    3.84908908209365   10.56421924852754
H         1.44075249788450    3.26019545361465   10.56851835546958
C         2.72097691697977    4.54445291917658    9.42853213475345
H         2.09375693628690    4.51083037355438    8.54950838083144
C         3.89398529573141    5.28313593255310    9.41484803857402
H         4.17748564359631    5.82513154653839    8.52478920917862
C         4.70273322207236    5.32411020354454   10.53870458217587
H         5.61780224031789    5.89715767624668   10.52801669974846
C         4.33531587325235    4.63130959993943   11.67791675952301
H         4.95726396871109    4.66481971670889   12.57068806015791

