65
CSD_code = ITIFUN | q = 0 | S = 0 | Stoichiometry = C25H25MnN4O6S4 | MND = 6
Mn        6.39650423193767    5.29688707779572    6.81086530839639
S         9.22005271649621    5.55130205738244    4.50361005596553
S        10.03486516133797    2.84057135952920    5.42987905104721
S         2.89141816319531    7.51535985987132    8.75181042088083
S         2.77772761807031    5.41879688690451    6.63877678873075
O         6.04984905162725    3.89234889733694    8.00677267495367
O         8.45820413478896    0.44822114996378    7.69272655712688
O         7.50892462937153    6.21713408157037    8.02245760311971
O         5.73198608135262    9.36635310787211   10.18692482665861
O         5.24550151855464    4.51387784150942    5.53344750191986
O         6.74360246082725    6.64711259467971    5.53121042797919
N         7.80129395623908    2.90210376234061    6.97007275254809
N         7.85698934120597    4.08002897622284    6.27450759965360
N         5.59957199974509    7.32998724463954    8.51492019888516
N         5.03790080858304    6.42910703469121    7.65197093265525
C         6.82613632320095    2.87985401319003    7.85114133568432
C         6.63022295555852    1.68529522277954    8.67967595334256
C         5.59507471820297    1.69377946044518    9.61765749338996
C         5.35880600832340    0.60572665338530   10.42796330525426
C         6.16397066547354   -0.52049605385868   10.31108852081249
C         7.19113704193216   -0.55074799254500    9.39259298683094
C         7.44482311430440    0.54397613055388    8.56320344219579
C         8.88561262429967    4.17144892487253    5.50601229512103
C        10.50495688206287    4.68488757738217    3.51364903909013
C        11.26292804754184    3.77103065115131    4.44423095189947
C         6.89476809332001    7.15294609649880    8.65422305499217
C         7.64602370444099    8.02754952096571    9.56133741654431
C         9.01578460986316    7.80109116685670    9.71462493689302
C         9.77857930520439    8.58676234493620   10.54973178945704
C         9.17590790192974    9.62359359374702   11.25103797500170
C         7.82592402885326    9.86569891658925   11.11411521549686
C         7.03717419363531    9.07740418901779   10.27336286400892
C         3.75108749420108    6.43132897554584    7.66314814082040
C         1.24462932001619    7.15226079168086    8.04256722215275
C         1.24316023738854    5.70767165480001    7.60699385180597
C         4.94900842594682    4.82277799125664    4.33718976198289
C         4.00134968430319    3.90940475079436    3.59772539420272
C         5.43846242615130    5.96884109772908    3.70309241442127
C         6.31581271297281    6.84447653569457    4.35232094900890
C         6.80176679679962    8.07880820334178    3.63164760539903
H         8.52373795935342    1.28943979301800    7.19109912904037
H         4.98695174445660    2.58336373015069    9.68754039897113
H         4.55576669490733    0.62771546785950   11.14875622540662
H         5.30754294689075    8.72609432651790    9.57542354642345
H         5.98734885606241   -1.37841594097834   10.94293094961451
H         7.82605554839039   -1.41686127492699    9.29059655016363
H        11.14413237603591    5.44657357033654    3.07170108963498
H         9.99883616226648    4.12510681540880    2.72638952593386
H        11.86655634641901    3.04426316787308    3.90414613968155
H        11.89230422538633    4.33352148784380    5.13462265508241
H         9.45644102859634    6.98839026181952    9.15665304003659
H        10.83571309567175    8.39854999687000   10.65887412282240
H         9.76592904342629   10.24554417136773   11.90801045320691
H         7.34328326276521   10.66657808183895   11.65204717229542
H         1.08427549794648    7.82569923413264    7.19991028466959
H         0.50551708781302    7.34866031505179    8.81676463866597
H         1.25499494192103    5.03057142398688    8.46173206746355
H         0.39958790029517    5.47155450824884    6.96152027533552
H         3.81424614780557    3.02169102172419    4.19575994664285
H         3.05890565327818    4.42391228265912    3.42130415322729
H         4.42316051801779    3.62451151559189    2.63708214097530
H         5.12703864431725    6.18695239440697    2.69561131124988
H         7.46142268676122    8.64276345046764    4.28553420926634
H         7.34351537397673    7.79409749042981    2.73240721109699
H         5.95723706800852    8.69996035920440    3.34179614675315

