54
CSD_code = ITIGEX | q = 0 | S = 0 | Stoichiometry = C18H32BrN2Rh | MND = 6
Rh        4.51125741190042    9.61487084567445    8.34510743808293
Br        3.76078486403338    7.67483845186186    7.07964789891979
N         6.89704027060762    9.34596186659683    6.65063552801397
N         7.00256524478049    8.09538048371801    8.58401920087195
C         5.13400890465006   10.89699285593601    9.94331902313615
H         6.09417013998269   10.56663959450456   10.33650868094295
C         5.16494390789233   11.59820423662590    8.73736360269336
H         6.14782513901975   11.78565611891158    8.30496834365518
C         4.12627240342174   12.60471988702366    8.29822491508475
H         4.30194087014322   12.83381642569867    7.24325188810027
H         4.26913739654785   13.53780519224022    8.85637759293366
C         2.67972399075407   12.10438072262145    8.46891971411070
H         2.28750022753705   12.40163866632270    9.44297991468144
H         2.05132342829360   12.57791877449566    7.71130894821362
C         2.57048474004878   10.60207951833732    8.33124857079336
H         2.06319731140397   10.26012965824282    7.42815362921772
C         2.63144495873367    9.73477306108753    9.40289337313123
H         2.13881307701706    8.76638070128240    9.30765458511951
C         2.87316267044134   10.14937808492492   10.83608877757852
H         3.05432983839847    9.24566804743691   11.42477201615238
H         1.96407508882031   10.61436301087175   11.23415498045795
C         4.07106454434712   11.10395650531082   11.00217159110075
H         3.73668632958480   12.14268386478134   10.96984549560894
H         4.51501186842850   10.94136534084701   11.98717203197669
C         6.35402451073476    8.97296507274469    7.81303782354228
C         8.16588961808330    8.83032344427076    6.16654950020968
H         8.00052376360981    7.93481269157867    5.55519883548948
H         8.64143812640621    9.59037457762236    5.54403975214378
C         9.05114247718986    8.48436749225437    7.35151783060977
H         9.27180485290587    9.38759978805434    7.92497156792168
H         9.99024334979803    8.04513873395485    7.01592998420335
C         8.27653749657152    7.50347801330943    8.21486715360773
H         8.83459510774643    7.27102555624719    9.12357472400290
H         8.11304541974026    6.57155150474766    7.65997498907578
C         6.13146748282000   10.15481082887804    5.70378746821156
H         5.17476246482998   10.38484985148170    6.20923056603591
C         6.83496113845220   11.47133030148595    5.37134393408653
H         7.19504580316784   11.95846470413111    6.27466894160762
H         6.13306843937626   12.13823622104431    4.87800378300989
H         7.67637964407385   11.31990641457469    4.69828419103340
C         5.81187256727719    9.36460154842582    4.43629749156956
H         5.31994125216107    8.43048421693479    4.69562235450008
H         6.70985309003502    9.15016684310322    3.86128258191792
H         5.13630275337525    9.94305605789823    3.81214838892641
C         6.35640251673131    7.53914614837809    9.77127661890666
H         5.37973816557291    8.05434839598653    9.85117983360026
C         7.15704417354132    7.81920580177070   11.04368052164918
H         7.49296206069276    8.85351481366611   11.06828980969252
H         8.02555495701276    7.16881476148699   11.12535817425213
H         6.52718469762430    7.64183160295632   11.91116629835498
C         6.08458968561249    6.04592853552731    9.60149480749682
H         5.51880262398327    5.87401776640910    8.68906251341509
H         5.49473371772257    5.68851482276098   10.44116407903568
H         7.00832341636655    5.47293157295441    9.56380774132845

