27
CSD_code = ITIGAU | q = 0 | S = 0 | Stoichiometry = C11H8FeINO5 | MND = 6
I         0.35013166411902    2.86911563328421    9.23670136905407
Fe        1.08815956362490    2.02258510645810    6.95079665274675
O        -1.45516749316778    0.77178495133934    6.17645038464977
O         0.45462192165246   -0.97979446114641    7.41770649171605
O         2.55385008027770    1.58888551863435    4.49998400681278
O        -0.00779258226788    4.47341966390788    5.85838055772440
O         3.17274094650006    3.99742120627938    6.79341898094449
N         2.10541880819572    0.45311121321731    7.87510347141041
C         1.96118965301584    1.73138487791120    5.46756367115178
C         3.29318221757818    0.77390350835206    8.40532221889238
C         0.41414217652429    3.50991065804469    6.28677864885592
C         2.35935883701845   -1.78008151818505    8.68567356186419
H         1.96629706327087   -2.77734223997177    8.78608539989746
C         4.06623093020322   -0.15754007959809    9.08223219995871
H         5.01690124347932    0.13563197049808    9.49607036971553
C         1.64325699963118   -0.79703343780152    8.00702716651362
C        -0.46750373327023    1.16977319391365    6.57951054544753
C         2.81464521484753    2.94060359679557    7.24150100339744
C         3.58767020080124   -1.44771754098490    9.22623917902007
H         4.16277347149646   -2.19102431166146    9.75596681761769
C         3.71849981169552    2.18833971923684    8.23066283236790
H         4.76296338931405    2.26290622832163    7.91553001811350
H         3.63070180848352    2.72093823286982    9.18454366530558
C        -0.22411133749868   -2.21228834329257    7.55780933067789
H        -1.17581248572833   -2.07578397276097    7.04736914758133
H        -0.40650999442097   -2.44597162903039    8.60969601186314
H         0.32926162462532   -3.02673774463122    7.08247629669959

