41
CSD_code = ITIMAB | q = 0 | S = 0 | Stoichiometry = C18H13Cl2N7Pt | MND = 4
Pt        5.63915439565943    2.37355371464382   18.43318410140751
Cl        6.64629868886365    3.32710827426973   20.18962377865828
Cl        3.70197798417045    2.92427866569180   19.36225864779338
N         4.88874500149417    1.48152087845534   16.78271722995695
N         7.31662830987780    1.83840169975023   17.54926874416984
C         5.82140116345332    1.00025849540357   15.95929886296592
C         3.66560804541732    1.22555554350100   16.22424476581150
N         5.24722867379024    0.41037653524540   14.86123816861528
C         3.88039862918930    0.55551754974707   15.00269106085123
C         7.19458427060955    1.16750445606395   16.36161703349612
N         9.56830668968132    0.97916415646470   16.17033538446591
N         5.63556183153117    0.71065032323098   12.54470615242712
C         2.37376992633372    1.51567499609133   16.65859045659397
H         2.22100376084669    2.02677863935370   17.59543924509005
C         8.54934840201945    2.06505674047502   18.01471721065186
H         8.61437751032039    2.59581893730883   18.95597226494699
N         4.71229046106166    1.30714542085403   10.70065649474958
C         5.81566222648494   -0.16054978851969   13.66784270919258
H         6.87303260184637   -0.38580845620789   13.81579409284177
H         5.27868583195348   -1.08617690673333   13.42648563178297
N         4.76852323225647    0.38970550443610   11.56058638543997
C         2.82851125418748    0.17131869904726   14.18274502423330
H         2.99079746994172   -0.31758113487802   13.23502459623662
C         5.83514910572957    3.55036687843418   10.47742835633532
H         5.36897193815388    3.83259131743277    9.54823324957755
C         7.06183230632387    2.77725178295458   12.94345864540763
H         7.53159210263943    2.49532626744507   13.87309689946485
C         9.66566313928338    1.64025054777052   17.32069762163148
H        10.66391207973368    1.82575146600821   17.68597610016973
C         6.15838708788592    1.94817995468133   12.29242585482250
C         1.55674545028216    0.46899362920595   14.62791686122379
H         0.71075131689915    0.19059698187754   14.01878246124970
C         5.54373329586426    2.32377853105537   11.07198688547817
C         1.33508268284250    1.12515343854342   15.84308510772007
H         0.32076258886537    1.33412453172339   16.14511964315356
C         8.35939895509201    0.74720251754520   15.70798682271047
H         8.33664154976514    0.20165023626768   14.77666169216727
C         6.73065601123573    4.36391732860249   11.13024623330515
H         6.98443023327656    5.32403063552308   10.70780429262022
C         7.33094236004808    3.98510717441486   12.33906131196940
H         8.02585143509224    4.66345383681078   12.81009391862391

