54
CSD_code = ITIXAL | q = 0 | S = 0 | Stoichiometry = C28H20IrN3O2 | MND = 6
Ir        4.36575137500015    7.48413103646324    5.57341286980210
O         5.13210318540157    8.40646965935967    3.73420549063164
O         4.51094649810422    9.13480775630159    1.72685555599469
N         4.85891407218189    5.74971045137190    4.68484406448789
N         3.96823046746701    9.21727845834886    6.47587831965169
N         2.55252868576448    7.84621404875151    4.38341230919205
C         4.10820490168645    5.11074664447754    3.78998843975220
H         3.09432299038131    5.46573173461227    3.66114836174032
C         4.56082945882127    4.03902564803720    3.04639267767213
H         3.90949980033222    3.56289660396474    2.33125936137100
C         5.86594040702519    3.60437765459512    3.23607178065474
H         6.26036013160457    2.77872826088667    2.66341294713859
C         6.64690244118502    4.25003441823254    4.17243211578110
H         7.66368448162822    3.93483170020342    4.33993675361860
C         6.12783518726111    5.32429200889223    4.89596751254229
C         6.84937714795125    6.07296923847160    5.91259250858274
C         8.14035127937957    5.76483436726051    6.34253932764608
H         8.67800108621688    4.93088675416233    5.91616412318591
C         8.74215348273396    6.52892598928528    7.32035789719050
H         9.74224938505440    6.29296162752539    7.65338352767312
C         8.05896631252266    7.60144633704359    7.87358794976076
H         8.53041504834462    8.19939320904526    8.64076580565384
C         6.77781968626987    7.91149196384599    7.44896838109326
H         6.27066507357156    8.75197486389350    7.90324702041733
C         6.14260760541395    7.16270738339547    6.46402694869652
C         3.44069490534002    6.78834500471480    7.21923299162304
C         3.17663179712053    5.47200018595728    7.58780189503607
H         3.57766280277036    4.65933238092343    6.99730143048827
C         2.41231852357542    5.17338961150068    8.70347682680433
H         2.22435880432494    4.14205568335760    8.96674103620846
C         1.88533369494114    6.18962914002643    9.48700177741620
H         1.28766120145120    5.95125644778179   10.35453548362488
C         2.13024282332861    7.50647105590418    9.15604742709008
H         1.71780612684637    8.29415179127682    9.76940227066219
C         2.90143927198082    7.81103459436871    8.03467584695748
C         3.22405436299614    9.16464717550337    7.60721391248796
C         2.84808582123312   10.33739153006697    8.26041864823256
H         2.25361769759646   10.28493865860412    9.15802266414397
C         3.24243564189763   11.56186551068021    7.75703010908520
H         2.95666311997642   12.47674860356178    8.25383790701873
C         4.01844430430027   11.59403231661276    6.60559432074548
H         4.35528348413237   12.52700160509155    6.18376153319482
C         4.35775399995557   10.39846209809747    6.00204336684236
H         4.96590738025301   10.37746388333192    5.10776028139667
C         2.81173637781547    8.41451651868932    3.20633986509171
C         1.80288105242760    8.77819674510321    2.32304214973465
H         2.08989130203258    9.23091883378829    1.38653334829926
C         0.48653331209959    8.54859690581589    2.67520321641220
H        -0.32129346764494    8.82240142339809    2.01239358358627
C         0.22435785290374    7.95577278491213    3.90368590532841
H        -0.78648465661199    7.75501229421457    4.22293718122108
C         1.28726267133138    7.62120130818014    4.72242303015548
H         1.12795201033004    7.15275778341538    5.68502576460412
C         4.29190758999071    8.67734030669453    2.83806417657362

