113
CSD_code = ITIYIV | q = 0 | S = 0 | Stoichiometry = C50H58N2P2Zn | MND = 3
Zn       13.09848679688164    5.24136575102230    4.80727046702318
P        11.11144407683127    3.82051259219674    2.93689358707213
P        13.00157587424290    5.92594146682132    1.77887628505422
N        11.66240514404864    3.89108239978622    4.44404608746608
N        13.89772342613295    5.92975577278229    3.11236651206656
C        11.39325950584773    5.31116282195860    2.05866661979057
H        10.91907687854462    5.25914994227050    1.06933780420750
C        13.78440054918137    5.64779895886690    6.64854351108146
H        13.60024466655781    6.67491040013932    6.94806434519157
H        14.85539074566743    5.48517277721556    6.72706353420607
H        13.30359844927396    5.01507975431323    7.38829793702408
C        10.84920706444595    3.57047691455740    5.56151818570030
C        11.19980193343612    2.48331241895325    6.37639642362382
C        10.39339897440960    2.15449187342955    7.45590554034075
H        10.64301285196231    1.29898441770675    8.06535790468264
C         9.27788589021685    2.90514727794357    7.76595002784909
H         8.65618888101837    2.63705701082045    8.60761131403564
C         8.97789190893946    4.01863304084260    7.00610685368586
H         8.12983078969034    4.62713987200052    7.27881953291072
C         9.74389734508537    4.36836925979904    5.90419964168185
C        12.44096497766176    1.66729568315151    6.10100427730073
H        13.03308433565759    2.21035759786417    5.35954277200933
C        13.31090339345145    1.51517417070365    7.34973919388756
H        13.51475361899053    2.48896487105794    7.78873818900923
H        14.25958783177122    1.05162023593760    7.08569308438567
H        12.82801108832976    0.89206643729663    8.09815440832813
C        12.07301506581643    0.29550126396013    5.53151302224425
H        11.45172209971709   -0.25519658042760    6.23489576465894
H        12.97087844417540   -0.28741717137279    5.33445958044150
H        11.52496896898994    0.40018395774098    4.59694821932847
C         9.42251850057442    5.63566179484850    5.14733455813687
H         9.84661413973175    5.56094666046050    4.13860249996776
C        10.08956676036222    6.82885319649789    5.83827022841302
H         9.77081050182150    6.89399629335809    6.87671193672134
H         9.82105193602362    7.75388714102147    5.33115106576787
H        11.17661156353593    6.72249537220349    5.81920745715912
C         7.92107411933522    5.88945857310450    5.00924461419392
H         7.39859525997897    4.98165151547473    4.71752552476838
H         7.74349627839291    6.64816189027082    4.24958463039822
H         7.49719352289291    6.24919639490743    5.94411460963864
C         9.32874495564889    3.47023076272297    2.85115812608378
C         8.89296706371040    2.32589783694147    3.50945632804620
H         9.61071336536001    1.71517679396915    4.04024475242461
C         7.55584687418829    1.97816218363259    3.48794175734408
H         7.21951112540679    1.09484965570278    4.01061332676125
C         6.65029482823847    2.76218951040452    2.79084286023556
H         5.60576045597668    2.48804564570998    2.76572289236901
C         7.08291054321223    3.89933031648931    2.12860547241257
H         6.37589551826394    4.51052287979773    1.58637091543535
C         8.41822895403608    4.26105773854221    2.16515263248171
H         8.75152589483612    5.15994686638485    1.66716804579505
C        11.72807544489332    2.31366318918654    2.07646546509787
C        12.89486852241653    1.67484539387640    2.46749152762499
H        13.39906937624873    2.01075403130734    3.35914690193747
C        13.39065110745906    0.61315102945649    1.73236112478073
H        14.29211978137461    0.10962362180333    2.05195965312739
C        12.73038725656176    0.19117966586687    0.59096718761149
H        13.11792127127076   -0.63632989584451    0.01488593565020
C        11.56871529455446    0.83183531986004    0.18790950354942
H        11.05110802444847    0.50504657189383   -0.70275534650916
C        11.07085667848283    1.89007204932482    0.92390776811481
H        10.16580741992069    2.39518089258444    0.60957808269648
C        15.28829505029869    6.21010461252958    3.05518789304520
C        16.20157468151253    5.16620155166019    2.83182183047663
C        17.55910986387375    5.44666982905597    2.79436342367436
H        18.26301644314100    4.64680571751503    2.62359865687456
C        18.02753335278028    6.73316068864379    2.97333843169859
H        19.08714084618972    6.93841649176170    2.92884193743875
C        17.13068363466426    7.74979945632667    3.23160040100565
H        17.49914200407150    8.75087245876501    3.39905121976433
C        15.76485347119014    7.50953330506364    3.28275101371831
C        15.73426523460365    3.73636826783280    2.71211738587329
H        14.67264845594130    3.74325401035893    2.43503392954089
C        16.48604043839698    2.94000509927771    1.64576620261126
H        16.57515373918795    3.51374311912451    0.72693228922117
H        15.94527976204494    2.02238929999035    1.42245310214155
H        17.48311852729738    2.66998513026882    1.98603051115385
C        15.88146022510713    3.06018539319029    4.07937945960839
H        16.90990407937799    3.14029483560050    4.42676660521899
H        15.62196350966376    2.00492177490617    4.01734288315635
H        15.23471591983958    3.54296196909602    4.81650008294023
C        14.83282054591986    8.64799959727605    3.61869518881039
H        13.80807189861408    8.26907092382778    3.59275856355361
C        14.94855432871857    9.78766431860120    2.60530514467576
H        15.93332374886373   10.24728641015509    2.64485358735567
H        14.20460018306491   10.55311023848398    2.81663021324389
H        14.77982775751746    9.42230071127852    1.59431109315913
C        15.10698190150325    9.15706948473177    5.03553015700198
H        15.03178644228244    8.33917260327053    5.74810847291937
H        14.38198241710694    9.92267903049091    5.30440275386092
H        16.10322312592189    9.58678271938623    5.10953921492038
C        13.99427473407198    5.29668251384055    0.36976200728424
C        13.61751153070278    4.15361855456221   -0.32075400914733
H        12.71654037427785    3.62897309192698   -0.03449537977004
C        14.38741110707000    3.68894134888380   -1.37190165386624
H        14.08706647328088    2.79782189229564   -1.90383311393342
C        15.53830815757591    4.36617377769085   -1.73872663235911
H        16.13981721268237    4.00482308516228   -2.56005028488232
C        15.92073494878938    5.50754579012928   -1.05035874687428
H        16.82034340418301    6.03505108033256   -1.33303412808028
C        15.15383775688213    5.97421703132124    0.00119513441345
H        15.45009420581802    6.86369309003600    0.53979899721479
C        12.55837072396462    7.61335939564061    1.19952291855912
C        12.84625248211499    8.16588581547681   -0.03974723951729
H        13.40800220769627    7.60250966726150   -0.77168039546420
C        12.40378514640827    9.44243259342049   -0.34772426674972
H        12.63219062963433    9.86784816333216   -1.31456059237745
C        11.67206700577692   10.17095142951277    0.57348916357338
H        11.33459245616022   11.16738623042473    0.32822566677480
C        11.36412943869297    9.61625101952048    1.80644614023958
H        10.78155829550947   10.17798973367095    2.52261857982993
C        11.79965713467820    8.34238560451780    2.11117972492476
H        11.54985906922451    7.88121396148570    3.05989379701041

