43
CSD_code = ITODIF | q = 0 | S = 0 | Stoichiometry = C8H22N2O8S2Zn | MND = 6
Zn       -0.62593833998104    1.84929643567672    3.10359871569020
S         1.31066960321406    1.43083033059944    0.95123721577296
O        -0.03749997374726    1.94382212212129    1.31099367266920
O         1.42995952365558    0.01057438691555    1.28820820225481
O         1.65856137000882    1.76916028640995   -0.39799275901269
O         0.69961787546510    0.28774762123261    3.69056390593349
N         0.80028551901315    3.42264824105218    3.53231828425639
C         2.46686374977616    2.33392366455086    2.04504486181404
H         2.72166871390538    1.67515935311254    2.86642468497598
H         3.34335599448216    2.52672384595270    1.43478562069873
C         1.81672011664669    3.62600438728700    2.49163405078560
H         2.57896989192845    4.33148562716154    2.86001326714048
H         1.34336949013224    4.05912676757113    1.60884704420202
C        -0.08017665689669    4.59227021586318    3.63722949713892
H         0.50119913118182    5.52296166794367    3.56339502237434
H        -0.54505057140154    4.55165985381304    4.62284996581746
C         1.46311224626022    3.22031613720650    4.82332836197357
H         2.15905904194988    2.39043415263197    4.75671230768970
H         0.71225335245384    2.96302595522103    5.56447999072591
H         2.00558112961473    4.12268180288796    5.12990288744376
H         1.03139371669469   -0.03957235798513    2.80116903672437
H         0.29375646391662   -0.44540265328729    4.16435481233784
S        -2.56226494205228    1.43073373770528    5.25597509589942
O        -1.21407971051339    1.94372221788062    4.89635437805431
O        -2.68178630420883    0.01068351556441    4.91838122309541
O        -2.90995814806818    1.76843346368705    6.60538410106429
O        -1.95142674471380    0.28798056527829    2.51596891933092
N        -2.05193781233076    3.42258856489709    2.67495139017313
C        -3.71850655919171    2.33441827497131    4.16269437950362
H        -3.97407143081662    1.67577785504821    3.34145849496078
H        -4.59460380466541    2.52761006931457    4.77340411422791
C        -3.06812112210252    3.62627330107604    3.71580029147666
H        -3.83027847850937    4.33189726992721    3.34749435304046
H        -2.59449872656072    4.05938150998957    4.59844772652103
C        -1.17137998763658    4.59210465511442    2.56960497767611
H        -1.75271381819122    5.52285252507584    2.64307165326625
H        -0.70648318976781    4.55106187879560    1.58401138341017
C        -2.71500327754601    3.22003279514775    1.38409756543918
H        -3.41089715721812    2.39012179758864    1.45094597226576
H        -1.96426091471342    2.96267520777410    0.64284751197411
H        -3.25755885264908    4.12233500487996    1.07749918582525
H        -2.28290719180879   -0.03946053497080    3.40539413721839
H        -1.54449321500841   -0.44510151868379    2.04301449616848

