74
CSD_code = ITOFIH | q = 1 | S = 0 | Stoichiometry = C22H46O5Y(1+) | MND = 7
Y         1.54651814116572    8.34560360976817    5.78482887188516
O         0.13857645194704   10.01569414785818    3.98784086935831
O         2.52593488325066    7.86531241377277    3.18769523320641
O         3.46923215791641    6.29180743956113    5.99382755391347
O         1.66210892283799    7.59701392101007    8.49461334920882
O        -0.17702551150854   10.03243190036094    7.23548104636417
C        -1.28769141765436    9.96747313366921    3.83023512940436
H        -1.75273520309429   10.37580827825369    4.73628774415112
H        -1.58770516487457    8.92244991103130    3.71834863522027
C        -1.62191407741162   10.82696117769723    2.61416899587394
H        -2.62100379678838   11.25043888404442    2.67122250916855
H        -1.53878150622416   10.24268427705388    1.69741297056303
C        -0.51920935914774   11.88127353790964    2.67341800303721
H        -0.33203586523383   12.35805717773119    1.71512269875416
H        -0.76743222971669   12.64929563287484    3.40664495967393
C         0.66977628323105   11.05066720290560    3.14856744774928
H         1.18382743303663   10.58405741380729    2.29857978942361
H         1.39637916229157   11.62752625777851    3.72683054160610
C         1.77535284899140    7.42881213067236    2.04503420261625
H         0.80900360049724    7.93901672082069    2.05137104963425
H         1.60432023860683    6.34751700190969    2.13036370556903
C         2.62216815564714    7.75012510851197    0.81622577226504
H         2.44683980995875    8.77417005552833    0.48506725033530
H         2.42113522396217    7.07378697258217   -0.01014585517448
C         4.03617252361706    7.61112874112228    1.37497013340181
H         4.32222561519200    6.55991119434995    1.42129645081955
H         4.77885054268080    8.15375045606922    0.79650277875959
C         3.86435980859168    8.18417672334608    2.77878026527910
H         4.55592713203364    7.75807469057615    3.50971306691913
H         3.98039842389894    9.27576209877490    2.77407973196854
C         3.46752717026841    5.09741467457716    5.19863045704761
H         3.19132810677509    5.36847852227465    4.17746841614147
H         2.71367198657080    4.40694353033314    5.59943577685523
C         4.86619058589006    4.49949282837103    5.31523930555761
H         4.86996313332669    3.42442585751270    5.15754740879381
H         5.54391733488856    4.96554746738761    4.59925218562693
C         5.24494088284909    4.89828118155272    6.73950386906133
H         4.78188948644014    4.21983489629268    7.45652623216133
H         6.31826406294674    4.91075899626249    6.90859013376811
C         4.62813432617161    6.29114607962369    6.84077286084782
H         4.31537374066887    6.55326084172178    7.85437529420648
H         5.32693870424850    7.05584245528029    6.47777654163407
C         1.28532168577047    6.30981247810805    9.00845496422351
H         1.79116856012595    5.54023095090779    8.41957505416668
H         0.20101532466264    6.19146862578420    8.88691360698430
C         1.67788295883999    6.29229833112270   10.48425593021374
H         1.03185146140560    5.64683645986332   11.07314305820962
H         2.70998884622098    5.96162271327443   10.60361366970519
C         1.55060140216913    7.76770976127903   10.85594448304911
H         2.13735432618254    8.03990126499521   11.72902039388008
H         0.50613484495077    8.02387790627827   11.03696738348646
C         2.05626970904738    8.44187804605312    9.58433938679016
H         1.63078410294133    9.43392690039850    9.41726351041801
H         3.15161129526925    8.52181328979730    9.59380948555436
C        -1.30703465063685    9.61813485828099    8.01603746201531
H        -0.99935479862104    8.78161116367388    8.64761231848299
H        -2.09909789612287    9.27664929737778    7.33633511370892
C        -1.76070459948420   10.84204787128223    8.80681079054681
H        -1.18671684580132   10.93791583483956    9.72895426903617
H        -2.81874024164519   10.80573012900017    9.05169206073692
C        -1.40579897522817   11.97236232745953    7.84375096921923
H        -1.29028463459874   12.93356206753784    8.33714207855042
H        -2.16889496877838   12.06225652943598    7.06986697192902
C        -0.09382806153541   11.46549617482432    7.25093181497515
H         0.08422955656448   11.81117396420267    6.22995706990572
H         0.75820192015770   11.76100567062169    7.87691514460143
C         3.29120609317881    9.97298374821408    6.10229729344704
H         4.29757527623566    9.55403660842431    6.00724683112760
H         3.26594872511544   10.44376087681485    7.08983588298484
H         3.25432671053591   10.79954440962099    5.38595930761597
C        -0.15958535213995    6.68099828358381    5.46815862227302
H        -0.38200889218659    6.48022785664149    4.41551914098924
H        -1.11745855875264    6.95062898307723    5.92403420247143
H         0.10312292740541    5.70948107467936    5.89773834603903

