75
CSD_code = ITOKEI | q = 1 | S = 0 | Stoichiometry = C29H33ClFeN5O6(1+) | MND = 6
Fe        1.19044757976621    2.89154017960552    4.93626968005935
Cl        2.39063042400927    4.58404441599985    5.57040948621820
O        -0.78248121272810    0.54038038274028    0.24969006889832
O         0.55770017058067    2.24772380365157   -0.27924982950343
O         2.15444159265758   -2.03086035525319    4.92234854800391
O         3.41319506132535   -1.71735790356199    3.09945385071845
O         2.39596087806874   -0.00475408048011    1.22241367725425
H         2.90801686294902   -0.82247118752102    1.31578049998809
O         0.52563839060824   -1.10186305445926    1.98574111025457
H         0.09595919782914   -1.07751372759936    1.11745544926146
N         2.43521031362297    1.80702906569254    6.00619045412203
N         0.42976746007423    4.05128442179080    3.66957037242614
N         2.42657801858364    2.40541016958872    3.42872186325167
N        -0.00393086977128    3.08998418819625    6.43039290629888
N        -0.11917830373837    1.37053604651927    4.32213191332505
C         0.62371226441049    1.36135041334525    1.97704568328766
C         1.59840969618409    2.53199050241948    2.22020119666305
H         2.23225358535438    2.59354215155175    1.32541573856254
C         2.89794462461454    1.06427002893891    3.78701690945108
H         3.75272215460612    0.77999754425582    3.15686367947525
C         1.82487268220457   -0.02373478769221    3.62157034267456
C         0.60388734411742    0.12333142261406    4.53774966413877
H        -0.04126902606878   -0.74439252896716    4.33825506193068
H         0.92090637409912    0.06963906084820    5.57924643104208
C        -0.56754645139782    1.39384309634760    2.92998088104254
H        -1.12924832776081    2.30548841582242    2.74129374216267
H        -1.20716261510412    0.52602290139396    2.72128301263983
C         1.35685458045092    0.00173330066187    2.14613070907677
C         0.14447394805996    1.45978486161464    0.52205381948916
C        -1.28261198080768    0.53014424543180   -1.09077102729035
H        -1.68816041556636    1.50938495725161   -1.34490508892683
H        -2.06043849034479   -0.22745585452953   -1.11637642906443
H        -0.48082512286647    0.28784184530075   -1.78891931907198
C         2.46257257633404   -1.37614599880322    3.96778115652899
C         4.05727335949458   -2.97379905473169    3.32995581984036
H         4.39339721166711   -3.03705126275590    4.36528165471774
H         4.89922459342741   -3.01340051780319    2.64428028592680
H         3.36131171094231   -3.78981836032075    3.13345068297181
C         3.29367665727922    1.12333623628995    5.23771479552354
C         4.42814152852073    0.51149472574060    5.73713296941215
H         5.09356067234481   -0.01711025673824    5.07274779271334
C         4.69915556015590    0.60652500043705    7.09440352807713
H         5.57773259640410    0.14365106605605    7.51395404052593
C         3.81959170190240    1.32421291468632    7.88801149780077
H         3.99130845858705    1.43987137561415    8.94523191144605
C         2.71149525733818    1.90942911058400    7.30243727351552
H         2.02110148983323    2.49385629244268    7.88834211507452
C         0.83325460808454    3.82723606854084    2.40786163649199
C         0.59579334791110    4.73063967772915    1.38857083371038
H         0.94114081328262    4.51513004440511    0.39087244187474
C        -0.08623430505723    5.90595293344211    1.67662249250618
H        -0.27644557881728    6.62987744226628    0.90083477471751
C        -0.49467635832686    6.13456175070634    2.98100812187096
H        -1.01169454965234    7.03963971551979    3.25362960421164
C        -0.21079642012903    5.18288200445101    3.94384074766789
H        -0.48075138595745    5.32141895816234    4.97881318347075
C        -1.27506885220492    1.41964493312867    5.24905962917886
H        -1.63187169576978    0.39854511205762    5.43725560713207
C        -2.46260780507498    2.25064809266350    4.74335418508133
H        -2.13961440145224    3.25769337079029    4.49059309696457
H        -3.19489401049050    2.32434073921347    5.54412096531241
H        -2.95558788350335    1.79220712247769    3.89166819528716
C        -0.87744965556513    2.08200693776119    6.53936511202578
C        -1.51737569637750    1.77701021087947    7.73005887199831
H        -2.18976230042221    0.93482574640711    7.77668205896178
C        -1.29916820659509    2.57427030601416    8.84314708302956
H        -1.78314668365193    2.35513249836442    9.78121019633939
C        -0.46652191011117    3.67351579156880    8.70282866959001
H        -0.29627859604253    4.35405908719350    9.52068079046986
C         0.16724467125405    3.88204605813493    7.49116137984932
H         0.85448597439131    4.70189584789716    7.34666335056652
C         3.60515092168447    3.25798486593682    3.24756731430713
H         4.21214867544626    2.90899375628389    2.40639431466740
H         4.20224138778477    3.25391631836963    4.15560614245246
H         3.28871213310753    4.28157939741842    3.06584861833148

