81
CSD_code = ITOPEO | q = 0 | S = 0 | Stoichiometry = C44H31ClO2P2Pd | MND = 4
C         7.81807218567756    5.51513223195133   12.77132147965131
C         8.26010710041190    6.88421026273831   12.32825531336828
C         7.58545501837288    7.60969074087865   11.35943260058016
C         8.06955164532935    8.86318135672026   10.99259866463779
H         7.54375879789179    9.45179594205940   10.25394323291312
C         9.23031333150235    9.34070287541032   11.57544184906790
H         9.60174612252570   10.31675705844685   11.29859376983665
C         9.95504298868965    8.56779088385681   12.47855247075360
H        10.89242659378173    8.93254953621313   12.87316176062568
C         9.47696463969161    7.32525084427678   12.84352205358998
C        10.16073927172274    6.27851534300989   13.69123000115527
H        11.14310633137359    6.57235764938649   14.05565414852544
C         9.18254535022673    5.90644961365493   14.78051538179059
C         9.39154583553967    5.87767049497502   16.14580167571599
H        10.31643458002245    6.24419205406727   16.56712367127832
C         8.40901003475803    5.34532135499148   16.97535723610358
H         8.56912272766106    5.33413570794826   18.04378156502589
C         7.26102448069372    4.77158067202598   16.45335822184529
H         6.54054868284467    4.29659603385699   17.10400633252218
C         7.04772423851265    4.80625759140292   15.07869182896792
C         7.97389973367104    5.44643238514382   14.26745419867918
C         8.96761393432161    4.64823532587670   12.30605867006870
C         8.83333533236419    3.54856749438418   11.46894784041802
C         9.96908305913538    2.81708837429187   11.15285035011243
H         9.89455338596684    1.94873786923468   10.51314504624818
C        11.20358935877168    3.19695205502150   11.65478802249059
H        12.07998461257775    2.61636091643409   11.39930257703778
C        11.34199491755433    4.31240045974565   12.47566041056182
C        10.20680105780184    5.04226333659695   12.80178288938345
C         6.35669787259971    6.69626053002678    8.87165612775993
C         7.54297802427494    7.02788389255959    8.22731085447964
H         8.39718818196887    7.35620554482485    8.80354261677438
C         7.62274729305145    6.93451098021314    6.84863041963608
H         8.54162872376734    7.20011472774356    6.34572955616760
C         6.53237177803430    6.49814050607616    6.11425909803645
H         6.60107109292080    6.42860136241048    5.03841933077935
C         5.35804693214529    6.13728530972648    6.75824487267177
H         4.51473744643836    5.78013528938484    6.18569088101323
C         5.26963309182450    6.22771151443773    8.13355395008255
H         4.36977338832194    5.92753213692214    8.65575371811110
C         4.78012730299651    7.81690528686104   10.99470833164048
C         4.23553155005007    7.75049660804366   12.27625778921689
H         4.64469984333814    7.02717584327587   12.99071041324934
C         3.18731147528718    8.57871494394024   12.62702209908757
H         2.75885812684421    8.52167501642312   13.61711191342896
C         2.67929350025571    9.47823713526830   11.70186457498802
H         1.85313025259947   10.11999811914518   11.97094681000798
C         3.22461757841575    9.55219670168753   10.43127170671139
H         2.82622504810202   10.25370357746735    9.71239784982937
C         4.27632221876726    8.72631096537657   10.07363780141593
H         4.69606060311581    8.77883854027718    9.07851566839288
C         6.59720189466315    2.25846479844431   13.90216990864162
C         5.96842863879341    1.40934320503063   12.99121866142497
H         5.06354759007559    1.74704013069784   12.49705699385729
C         6.51196854684779    0.17085751376860   12.71156579897002
H         6.02392274328489   -0.48771151935000   12.00754351043618
C         7.69257509051640   -0.22086442842980   13.32604901885749
H         8.12274940457772   -1.18641692895733   13.10245873517787
C         8.32646335371776    0.62769412235578   14.21770002907132
H         9.25126642896408    0.32531630554625   14.68748387966525
C         7.78497890668947    1.86871833959077   14.50761766763371
H         8.28881471529997    2.53395174126875   15.19512994476649
C         4.36356749528187    3.63419300912297   15.05327344202931
C         3.23204370804647    4.38596583052634   14.75555720602580
H         3.25254141391865    5.05569851422059   13.90261418566169
C         2.08982672688229    4.23921603957530   15.52146740350806
H         1.20621584697099    4.81506601513785   15.28937504443258
C         2.07806170078712    3.34620965400626   16.58083263875910
H         1.18619329664815    3.23087880239140   17.17940777822872
C         3.20262716501112    2.58839226882325   16.87003371424660
H         3.18344157336402    1.88473881585149   17.69001909670450
C         4.34747767967077    2.72638658040306   16.10717121132509
H         5.22395016461999    2.12680502730169   16.31472591824342
Cl        3.99191561589074    4.25744564498167   11.18976661513153
O         7.58273793939660    3.25241028845793   10.99447542636866
H         7.60813632345321    2.45659285332247   10.44782805218489
O        12.55446939917202    4.70399479259287   12.96921034928732
P         6.17060270220653    6.68966629596843   10.67134506633751
P         5.84670125940762    3.90701507935647   14.04921831693689
Pd        5.99761973195933    4.95498933047275   12.08687965930789
H        13.23820626942422    4.10313088080205   12.65113508036652

