91
CSD_code = ITOQEP | q = 1 | S = 0 | Stoichiometry = C49H36NO2P2Pt(1+) | MND = 4
C         1.28579305059620    5.17525259760346    4.04736938383429
C        -0.15263862349879    4.77007538154955    4.27847979184493
C        -1.09681115766026    5.60776787276315    4.85072325768839
C        -2.39267314693299    5.13902658330692    5.05759594373182
H        -3.13785713351573    5.78088198351145    5.50395791878874
C        -2.71365724131887    3.84488116836381    4.69056580383593
H        -3.72019469288444    3.48432577523489    4.83815967713280
C        -1.74986239700818    2.98571261593332    4.17172654584694
H        -2.00429846929251    1.96253859851819    3.94036676660733
C        -0.46235809540694    3.44575188919628    3.97971118280353
C         0.74362446227110    2.65048607362820    3.54411478651469
H         0.53995447114770    1.59865396062817    3.35900265021868
C         1.32686260159980    3.38407386844073    2.36173076625656
C         1.62791213966281    2.86922167460640    1.11653490268725
H         1.38522303228674    1.84535775749122    0.87579601384161
C         2.27027450110541    3.67350307032566    0.18024240199893
H         2.50272970170893    3.27036438007252   -0.79359241348563
C         2.65145096036503    4.96596904453921    0.49144014943285
H         3.19137761014644    5.56394891197359   -0.22782640044886
C         2.33639163306899    5.48994584201707    1.74360082724390
C         1.64318171562302    4.70819676522211    2.65427303761623
C         2.04556692679474    4.19858385587406    4.92593655231997
C         2.95088075799220    4.54091134263985    5.91730564752101
C         3.56768855447036    3.52976949683259    6.63983104651609
H         4.27735217332593    3.77484696294971    7.41784505165942
C         3.28114448596304    2.20256284280086    6.37260893181852
H         3.77098748986527    1.42824494015889    6.94562257876160
C         2.37252082929268    1.85017648350288    5.37873532387699
C         1.75592361432219    2.86444638455008    4.65618698779106
C        -1.42266478302872    8.48747758983835    4.64084835670196
C        -1.58275403261258    9.72675217453669    5.25489749556237
H        -1.19348607920705    9.88610846012208    6.25206662814058
C        -2.24565034214033   10.74375782903486    4.59219430571642
H        -2.38133739419023   11.70011679672753    5.07469315648340
C        -2.73348856579530   10.53689565680180    3.31137155798345
H        -3.25137534039844   11.33257444445543    2.79804178255532
C        -2.55774095091143    9.31062383790109    2.68906842770112
H        -2.93674053805550    9.15239993219284    1.69070013413458
C        -1.89941412738072    8.28863891894665    3.34732846511672
H        -1.75453681216504    7.32759547909493    2.87155721998887
C        -0.77098242452715    7.23477088085410    7.17325427062310
C         0.24896526339947    6.85933366154685    8.04143917521715
H         1.21861854772713    6.61101970292656    7.62886619047439
C         0.01417583099315    6.80611342569700    9.40280310919749
H         0.80336071844219    6.51425233086732   10.07946120588279
C        -1.23929211247522    7.12825121666027    9.89840315237466
H        -1.42495192670818    7.08826583776693   10.96082540097348
C        -2.25691269610297    7.50246845491316    9.03447306928803
H        -3.23176841815425    7.75192857234979    9.42552583603940
C        -2.02949747179609    7.55570238764423    7.67137939493043
H        -2.82078745040127    7.85246826529652    6.99722530353050
C         2.28818048544052    8.36465641017232    1.30237933475902
C         2.97897015915410    9.56438231532109    1.15507893695038
H         3.94320262443999    9.69065493459524    1.62988492642662
C         2.43449989527938   10.58436628942680    0.39601655470074
H         2.97743618972039   11.50923519694752    0.27089176024023
C         1.19456832935798   10.42088312746395   -0.20142229493085
H         0.77348843820524   11.21893888151547   -0.79358024800408
C         0.49467975582646    9.23509882097798   -0.03969804801427
H        -0.47220155381547    9.11125169790493   -0.50361524541666
C         1.03499536777483    8.21008512241590    0.71428727711337
H         0.49768976890502    7.28057164777255    0.84992109760684
C         4.68022682429192    7.03506478923990    2.26033387780612
C         5.32146929058318    7.27203923921998    1.04882806488987
H         4.74768736172613    7.55205537845607    0.17643482154728
C         6.69750116442077    7.15735893557786    0.97220188020132
H         7.19948645984116    7.34135987080337    0.03430206563912
C         7.43274097058912    6.80530858749743    2.09362907301715
H         8.50622656955316    6.71706767148480    2.02547237671363
C         6.79456970774602    6.56718884603762    3.30049367268947
H         7.37130576857549    6.29253335689687    4.17103322396050
C         5.41939662365711    6.68184635016600    3.38448563124348
H         4.89644969417534    6.49943336943113    4.31473969018354
C         2.83178224763312    9.63222341918016    5.58615702749787
H         3.30623077532223    8.83265923771171    6.14418561120294
C         3.11647969823642   10.95963450627803    5.84858102633880
H         3.82246237867734   11.22068868437368    6.62047530783121
C         2.47791734952169   11.93943208480735    5.10190600377830
H         2.67662771253288   12.98472439927775    5.28060411976232
C         1.58016716198861   11.54503392247323    4.12248338615424
H         1.05928411527985   12.26833877166257    3.51641094362652
C         1.35491019771111   10.19397229924920    3.92663169212866
H         0.66041237633565    9.85212990959072    3.17007680473762
N         1.96879938909029    9.25796251564192    4.64466135185157
O         3.20663639804122    5.87421471351614    6.15149456478932
H         3.85351454156093    5.94990791072161    6.86358378776702
O         2.06745094310232    0.55858530440378    5.09050097575944
H         2.56474561281875   -0.03610825269135    5.66463824303840
P        -0.40721832308701    7.19470288973816    5.39847754486205
P         2.87700704440571    7.07958921231259    2.43284948148017
Pt        1.62549183693458    7.18623365170526    4.34591494533524

