46
CSD_code = ITOSER | q = -1 | S = 0 | Stoichiometry = C17H19CoN5O4(1-) | MND = 4
Co        0.12890600590793    3.87490169390278   13.19590099606157
N        -1.16070632991605    4.13041508990034   14.42872362117749
O        -3.42648068203558    3.50190988177748   11.70090377869653
O         2.50935435934582    4.60109465929325   16.28721725681654
N         1.28872558484410    3.59469069980731   11.86108582140791
O        -1.98347245148619    4.57957636000388   16.51564142151073
N        -1.13909976970169    3.59084968132993   11.99295107607550
O         3.54131591844339    3.52433658615173   11.36829868897451
C        -2.53014671779828    3.99625788885841   13.89533656007923
C         2.61033761674619    3.68013143544854   12.14338168695555
N         0.26485011738752    4.54796229147987   16.23709278359600
C        -3.28577894375815    2.84350594186806   14.56901468401749
H        -2.69543963596499    1.93069117810288   14.49891639110258
H        -4.23625630105981    2.69368239610623   14.06193956821856
H        -3.45626289976565    3.07941070793470   15.61511488642979
N         1.50247607314715    4.13610801077266   14.27931110963600
C        -2.43622425976299    3.66564043391523   12.39500462081041
C         0.58416633930001    2.79546483312177    8.30790545459732
H         1.06827012907450    2.59150424714628    7.36230338062835
C        -1.45717428495650    3.04983755257524    9.57278781501573
H        -2.53364887310282    3.04922618845915    9.63360799461715
C        -0.80501054282344    2.79354898287861    8.38082604135052
H        -1.38511455744437    2.58833061680854    7.49126961004046
C        -0.70062400286057    3.31264677282245   10.71144252710419
C         1.50378961507643    4.43034489971425   15.60141595100025
C         0.37375855407795    4.86212613870463   17.65095795968028
H         0.90492074808112    5.80637447575916   17.78186003581060
H         0.93618163966233    4.07950818907682   18.16283044432726
H        -0.63458823798058    4.93241689832863   18.05155137225139
C         2.82611017860323    4.01553896499419   13.63334295803395
C        -3.31421384044759    5.30853957245147   14.02497386120389
H        -3.48451488515960    5.53100221399857   15.07405802072407
H        -4.26528327277802    5.21038314133529   13.50653361619423
H        -2.74356769517977    6.11979525542633   13.57452753609735
C         1.35641437448665    3.05392773962785    9.42490955264383
H         2.43357558792966    3.05729081121551    9.37595225688254
C         0.72120295150566    3.31483516991710   10.63598862720705
C         3.60303013780856    5.33677045453878   13.69507949583471
H         2.98518625694474    6.14159600442011   13.29828809728502
H         4.50323370203660    5.24804125372889   13.09108377598593
H         3.86747248720013    5.56236106045557   14.72381291825671
C         3.64685626047034    2.87268489522590   14.24425593028844
H         3.91078520047802    3.11427496566791   15.26949275127049
H         4.54824958359228    2.72727611399219   13.65316828611450
H         3.05979621925473    1.95505690834746   14.23117007907455
C        -1.04655745742293    4.41993074260810   15.73476869891299

