55
CSD_code = ITOYOH | q = 1 | S = 0 | Stoichiometry = C19H29MnN2O3P(1+) | MND = 6
Mn        7.85866342796123    9.88100178870085   15.48989222950352
P         6.17796071329855   11.25397146586176   16.58555638828441
O         9.87433079117612    8.29478160535120   14.07586419826550
O         9.09607128155917    9.10924869256494   18.03358039085935
O        10.06559284426084   11.77154692188218   15.18316584116040
N         6.68642461452231    8.20788168087912   15.26678434888125
N         6.71606527436624   10.45540387095739   13.71390549927193
H         7.41366925596775   10.64004627064989   12.98990609749776
C         6.76452423444471    7.11412298448668   16.03922992524998
H         7.41038306112997    7.17308275719615   16.90591377674952
C         6.07906864760395    5.94565364070291   15.77317883966879
H         6.18957913419550    5.09859697345478   16.42968390199407
C         5.25795789971341    5.88744103515120   14.65598923586695
H         4.70161066031074    4.99515138805902   14.41821447606782
C         5.18656925920991    7.00375432995860   13.84515728151178
H         4.57817733726496    7.00520884810906   12.95412669057769
C         5.92248158711630    8.13787536257537   14.17331719180347
C         5.89273939791053    9.32351633879792   13.24370309919530
H         6.24134753032704    8.98048758078397   12.26164736028702
H         4.85107851361917    9.64161125090770   13.11513902679777
C         5.93167080270703   11.69858407447606   13.84473016709158
H         5.26494537576741   11.81954827009799   12.97903546016669
H         6.62990640323354   12.53674890215414   13.84188336841845
C         5.11160548794035   11.70274860838465   15.13194281841823
H         4.31818042719502   10.95332344860289   15.06605694269400
H         4.64473352798226   12.67746469470755   15.28507008205869
C         6.81360764741441   12.92738351454967   17.24166917510998
C         7.32964036447926   13.75050100504083   16.05740131699544
H         8.00122037449962   13.17334296358708   15.42614491055472
H         7.89526293612151   14.59920210438155   16.43704115696911
H         6.51251460425492   14.14694361236062   15.45821185500361
C         5.77647195420215   13.78752446938396   17.96201792458136
H         4.91023727182382   13.98760892470677   17.33475968625872
H         6.23509106618577   14.74770013942363   18.19396172685532
H         5.45461270173476   13.35278926672983   18.90231509363815
C         7.98429921105213   12.63406886000985   18.18306862529249
H         7.66793787591537   12.09056467238026   19.06789580851921
H         8.43281596109673   13.56967323079779   18.51056634482604
H         8.75444265334668   12.05047702104444   17.67726585830790
C         4.89142751929755   10.55287918826965   17.79898227250454
C         3.57693722533365   11.33442839522766   17.84476243108896
H         3.70712927935635   12.37280794105931   18.11951449501059
H         2.93735039399346   10.87728368094892   18.59828431674595
H         3.04568730325553   11.28853997056109   16.89724212600774
C         5.51659715038072   10.45740317672958   19.19168705914476
H         6.50803370886516   10.00670404749620   19.13815370054340
H         4.89533398754707    9.82650088072039   19.82512964655197
H         5.59380179549977   11.42672201663713   19.67398397774239
C         4.56667235175940    9.12497329987412   17.34867399314349
H         4.27199333205551    9.07450153641954   16.30064539360024
H         3.73491293892347    8.74242889591468   17.93762142389822
H         5.41770750064757    8.46990370229769   17.51601632859340
C         9.06719274392231    8.91233259129344   14.59710739197835
C         8.59249577622479    9.40175726052970   17.04672434899684
C         9.11463488002684   11.14865084617058   15.33917697319827

