41
CSD_code = ITPTZN | q = 0 | S = 0 | Stoichiometry = C16H18N4S2Zn | MND = 4
C         0.24548409846502    4.56046998343218    4.05709776504591
C         2.22269651240571    1.95966990629906    3.28372002505194
C         2.89864214399579    3.00735938263370    2.67525069723284
C         3.72061067815069    3.82423574813750    3.42685223539662
C         3.88426416131218    3.61533353381876    4.79147142037517
C         3.21516953656233    2.55185206915202    5.38188561633661
C         2.39383859897745    1.72433636907769    4.63802160370477
C         4.72331550301673    4.54372670249127    5.61117381268487
C        -1.07195601803319    1.92618862895811   -0.71954351816240
C        -1.33150703299251    0.80158299092521    4.47048455300505
C        -1.12577869046239    1.59584372413082    5.59193116397167
C        -0.49173222604024    1.07281487847700    6.70098320839657
C        -0.05430805127145   -0.24873227562711    6.72415121664504
C        -0.27213924180917   -1.03525166671839    5.60117181426486
C        -0.90463694686874   -0.51921336801379    4.48202178364163
C         0.64154055837077   -0.79227751923913    7.93349413307844
H         2.75958733989257    3.19224635311752    1.61830933412196
H         4.23109351350053    4.64687991093689    2.94888448804561
H         3.32762925719898    2.37259344721565    6.44083219309158
H         1.86721909140525    0.90964871736680    5.11402617373087
H         5.52965173799692    4.96864527416604    5.01846958868519
H         5.14420286123915    4.03321585409053    6.47401908623039
H         4.10153979563965    5.36311074360356    5.97264487326629
H        -2.38116533560527    0.64582102407501    2.73622827066079
H        -2.59629415783901    2.07769304571142    3.53939484848451
H        -1.44631009230888    2.62636214165737    5.58471733630240
H         1.69603353039272    0.93480011601151    1.61172316252671
H         1.08259503446161    0.30961525039139    3.01534739029990
H        -0.32915334474574    1.70152400551804    7.56308062904094
H         0.05375601376470   -2.06540294965439    5.59629639394638
H        -1.07026394488761   -1.14575481262135    3.61544846847537
H         0.87709174003322   -1.84609312402622    7.80974338192422
H         0.01442650677958   -0.67599521096328    8.81583638483368
H         1.56786411966057   -0.24748554542435    8.11287868223100
N        -0.21535963024221    3.91819681824215    3.17736766918387
N        -0.83357746976624    2.14162279561973    0.41945177272506
N        -1.91873701519819    1.35873392859934    3.29553626937777
N         1.29648594126208    1.17244906576102    2.51818413125848
S         0.79753957475840    5.42663633452798    5.23919860354512
S        -1.39382970910771    1.60144326610309   -2.21680342898626
Zn       -0.40482894206118    2.41905446203619    2.16421676633113

