61
CSD_code = ITUCUW | q = 0 | S = 0 | Stoichiometry = C31H26N2OPd | MND = 4
Pd        1.18482077521520    2.58276971007004    6.53225810777761
C         0.56793116193294    3.33076775707839    8.26399159279985
O         1.98228196116161    0.86884957258587    7.56084182422346
N         1.86527974584851    1.73601200581482    4.75581925665398
N         0.45018488198110    4.15542950453524    5.58595293489338
C        -0.11761417049254    4.55383380536326    8.46677620810734
C        -0.37506353554984    4.72148037227622    9.89790489867859
C        -0.99580863545157    5.72557735314070   10.61229907882160
H        -1.40406889896297    6.59512724625986   10.11829228335260
C        -1.08692680775822    5.59746268669062   11.99346592301593
H        -1.56881979155684    6.37364221672439   12.57050571053305
C         0.15352918040435    3.59421894186281   10.55583981114988
C         0.05874032619818    3.47341574379235   11.92704042568613
H         0.45907875989174    2.61488615229243   12.44675707325209
C        -0.56819011695947    4.48868762006538   12.64055070315460
H        -0.65099759263178    4.41121168809073   13.71513275768458
C         0.74478683985701    2.71948104142916    9.53534233660297
C         1.35560131131725    1.51131698973719    9.82360771600417
H         1.40127409176732    1.18796718922202   10.85418127844924
C         1.93498508017051    0.63755826639249    8.91235008014015
C         2.55853158176912   -0.59276015929666    9.18140613063570
H         2.66491465571878   -1.02429595312962   10.15644060530391
C         2.98709078539905   -1.10814636966229    7.98465602407065
H         3.50297246850995   -2.03160514042065    7.81405170136809
C         2.62588634648433   -0.19254699009851    6.97795511610808
C         2.87315221840763   -0.31781535302004    5.61885311743096
H         3.39900681269848   -1.21762718798833    5.33675313526464
C         2.53176873224436    0.56199070108224    4.60069251366187
C         2.84074770713834    0.35933794410106    3.19777196737964
C         3.57651356363353   -0.81954596435902    2.66405022465846
H         3.05399769201643   -1.74329291918309    2.91323256448192
H         4.57725359623083   -0.87092546655056    3.09351507533424
H         3.67102657814571   -0.75661903112591    1.58334055947364
C         2.33705878072452    1.43271170575149    2.52828484670256
C         2.41430618779632    1.74261703565592    1.07135902731367
H         1.48427444500719    2.21251548380588    0.74355619844550
H         2.53590601721747    0.81794042414384    0.50358296405353
C         3.59020261155875    2.67669573543290    0.77440365936244
H         3.63250956633350    2.91058054795947   -0.28715280193805
H         4.52693316619995    2.20570958830186    1.06388228639872
H         3.48959668140626    3.60455987943272    1.33293059718075
C         1.72907997253188    2.29286580499119    3.52502246602296
C         1.09721466528055    3.50131171657628    3.28868434757963
H         1.04916911574234    3.83073746696143    2.26186267325977
C         0.51382128299817    4.34206207246626    4.23325714933212
C        -0.13297084918680    5.58719447877332    3.89226792673074
C        -0.29937036825524    6.12068196779802    2.50727523937770
H         0.60032474313766    5.92603952517194    1.91964872441559
H        -0.43420312932892    7.20312381453629    2.54846527793725
C        -1.51028351447276    5.48867287355927    1.81625940113072
H        -1.61983312577365    5.87813009017988    0.80636704507403
H        -2.41718105529994    5.70890487454368    2.37436401844009
H        -1.39864247331806    4.40815844534462    1.76433796675624
C        -0.58711545491960    6.12858322146348    5.06031158093255
C        -1.33798090346426    7.39732515742777    5.27166209765055
H        -1.49768402369685    7.91292593863516    4.32881085556259
H        -0.78947738582110    8.05968639484839    5.94086432226025
H        -2.31003453644212    7.19238837551353    5.71959193768024
C        -0.20868476974844    5.22408981978762    6.11477678604382
C        -0.48248671667570    5.43167001480365    7.46638230965773
H        -1.01151623431122    6.33667357236209    7.72841236048248

