42
CSD_code = ITUGUB | q = 0 | S = 0 | Stoichiometry = C11H24Cl2N4Zn | MND = 4
Zn        3.07931910619222    0.69431940828099    2.69592666107710
Cl        2.57954057967814    0.58395327949763    4.85534378090781
Cl        3.71585792682419   -1.00129205416212    1.37557924873468
N         1.57064455125476    1.96284773087813    1.76499755044807
N         6.38898018989059    1.09601463980442    2.78878471936036
N         6.48463493272183    1.90955213431178    0.73257304935145
N         4.45389952212791    2.09954672425041    2.05224645246719
C         5.67535905449609    1.71395998835960    1.82771769894669
C         3.74410722781153    3.01391518457205    1.18758097982954
H         3.66923272054981    2.64741918938850    0.15998815288961
H         4.25322156645078    3.98634427488567    1.17497587200213
C         1.22635625217174    1.47442854195115    0.41998075324550
H         0.75406088798708    0.49897476872928    0.54130746870284
H         2.15768435847033    1.29815731383865   -0.12022787241393
C         2.33504618674285    3.21343740283160    1.74251456904689
H         2.42992548020502    3.55461823196608    2.77557462347444
H         1.81861063494160    3.99031550300201    1.16564460291283
C         0.38798334052417    2.13373148096842    2.62443714482933
H        -0.23746275499973    2.95616034567466    2.25104259944313
H         0.75688501122600    2.40925619805095    3.61485445684620
C        -0.44325812500519    0.86817540042984    2.77131534263063
H        -1.15255137115078    1.00520737745114    3.58342542158918
H         0.20057910659447    0.02761345390095    3.02556445882480
H        -1.00119378709777    0.63169735868928    1.86876610622965
C         7.67019846181754    0.62696951423541    2.32189852062742
H         7.73382304073613   -0.46440131527158    2.39474360562858
H         8.47366954889013    1.06286832930134    2.92728224112624
C         7.70018933690543    1.11651474101838    0.87435965466022
H         8.57189818857618    1.74165884955211    0.65883643533785
H         7.68698802121598    0.27692444373942    0.17040932744149
C         0.31834234118571    2.37149767520896   -0.41999378847448
H         0.12970350184413    1.87771776378497   -1.36989552190712
H         0.77906667010933    3.33375073866443   -0.63008519745116
H        -0.63860673334029    2.54031868477820    0.06639625207419
C         6.03172562181431    2.07959926601856   -0.63014293781633
H         5.52972654772817    3.03651711659251   -0.75639263181883
H         5.37050320727015    1.26608052390898   -0.94561489896780
H         6.91150311226187    2.07993687554868   -1.27222879660190
C         5.95800105677044    0.79557784391989    4.12328951032679
H         5.53381261502062   -0.21139699440084    4.19292789661868
H         5.20855398499034    1.51748440462257    4.44083025117165
H         6.81873887763020    0.85962766119556    4.79066623665225

