39
CSD_code = ITUHEM | q = 0 | S = 0 | Stoichiometry = C10H22Cl2N4Zn | MND = 4
Zn        9.03613877526749    5.18060008923580    7.88205790612273
N         8.50357567042532    6.36796318319388    6.30577413832428
N         9.57255347350714    8.27318649833598    7.04217383172232
N         7.37942543647078    8.47551575765973    6.69884398559298
N         9.04991999696457    3.30472559694242    6.82736942927015
Cl       10.99007073317979    5.27038603917504    8.90373696326042
Cl        7.11431843425974    5.28778691557275    9.03081347304529
C         8.44834740796381    7.61879159173354    6.66801798841415
C        10.91441894092349    7.85141512035356    6.74508130443895
H        10.88316178268406    6.87739515678473    6.26441284000515
H        11.50074911413123    7.76839347723857    7.66084217497699
H        11.39168805399673    8.57391070149926    6.07534933096392
C         9.31277602637214    9.66631322403350    7.31943354369303
H         9.73787187260896   10.29703528708506    6.52618281275447
H         9.76011200456395    9.96144759525571    8.27251941067289
C         7.78636721988748    9.72156928035536    7.33774752073610
H         7.40599609194395    9.75786120334478    8.36552576826803
H         7.38500429717491   10.57355021319980    6.78285263127692
C         6.01899161617542    8.04996108703047    6.98367607915857
H         5.55899720079216    7.61126870809234    6.10060865088596
H         5.44406628447655    8.93084303730359    7.26114168686183
H         5.98832513190921    7.32999011782438    7.80591661945440
C         7.40263113211639    5.74728674913061    5.59151393479405
H         7.04696236122789    6.43840610726238    4.81856170423863
H         6.57393262884930    5.50368442006647    6.26335542015090
C         7.87524497104212    4.45997256677608    4.91246513395792
H         7.15374964168748    4.20908125221771    4.13189819882412
H         8.83500128614714    4.64553129493966    4.43058127697386
C         7.95637249608904    3.25618399780108    5.84944318535348
H         7.01982054553397    3.20121075344605    6.41021428885047
H         8.05128296321028    2.33766353190171    5.24849952257193
C        10.34225231976874    3.09901366904576    6.17643664297865
H        10.38325680371094    2.11844205326225    5.68690505602511
H        11.13145202478455    3.16287634203194    6.92273137235489
H        10.51778963947510    3.87558784662321    5.43694776868078
C         8.85270835741027    2.23990321664104    7.81299537028055
H         8.82430720036457    1.25586943605217    7.32915223919942
H         7.91855382177432    2.40053588815496    8.34921200473072
H         9.67050624114910    2.25834099340292    8.53170879014050

