59
CSD_code = ITUHOW | q = 0 | S = 0 | Stoichiometry = C16H36Cl2N4Zn | MND = 4
Zn       13.01368925536733   12.46845951112549    3.63505155027939
Cl       13.34747800953279   10.57752509583765    2.51147099571468
Cl       13.40752246920591   14.46834287988256    2.71494030980837
N        10.95394092089528   12.52063351660667    4.32381176675162
N        15.79693150364679   11.35116587511423    5.31077300871834
C        10.06644693518465   12.96291084649567    3.22998406890843
H        10.45072162832809   13.92715459053537    2.88636144696365
H         9.05056375579226   13.12582577404505    3.61750938583013
C        10.85882302529752   13.52754224931232    5.39285866471610
H         9.84361741783961   13.52235925473195    5.81367690969622
H        11.01481496218528   14.50278601705665    4.92374095816821
N        16.07193530737743   13.55538733492939    6.00099826098838
C        10.62959900010479   11.16319723494485    4.79426507642221
H        11.34552694399103   10.90975731975037    5.57790455606349
H        10.81930469510809   10.48067947042725    3.96512753770636
C        10.01632831320551   12.01948917263090    2.03807620596436
H         9.49686079916427   12.51509795038161    1.22126610013557
H         9.48885188681101   11.09681492631548    2.26548003546481
H        11.02033957392595   11.77442527125718    1.69970989287752
C        13.29020694684399   13.80933435799037    6.13845490199296
H        13.22910152676543   14.71236935523237    5.52360400928649
H        13.86395341183386   14.04579760266950    7.04237662571865
N        13.94719735450680   12.73225781661610    5.42402127631897
C        11.86991422030186   13.39775222545521    6.53040187540030
H        11.53715862492898   14.06738050809089    7.32691454154824
H        11.88475033067713   12.38565516989119    6.93517505861421
C        15.23757125331994   12.56672259737611    5.54993652631756
C         9.21390647506672   10.93707465942133    5.32266719756216
H         9.11845371572810    9.89277194445802    5.60942453038115
H         8.46289945749232   11.14601582612546    4.56592839722656
H         9.00648365502808   11.54433813355139    6.20045449853526
C        17.10900018787594   13.26966980786523    6.97135799473827
H        18.10193797342886   13.50626649609274    6.57305939801198
H        17.07188199220072   12.20095638244214    7.19087398709659
C        17.31142139233401   15.32001404689877    4.77836416889887
H        17.14184586149455   16.24070788556565    4.22729016614279
H        17.65523532308845   14.56275012861945    4.07798140509480
H        18.08968750196906   15.50242280710220    5.51567874058095
C        17.02691966292827   11.26477123221522    4.53773941301124
H        17.43765924588514   10.26316466882701    4.67577845748084
H        17.75461819185125   11.98391390467869    4.91628009556350
C        15.99803385926164   14.89025366135428    5.42993724660073
H        15.71051674329857   15.62413618652796    6.19148911709231
H        15.22998929316327   14.87518670113984    4.65613245318415
C        15.00720997598422   10.13430698584627    5.38904859536835
H        15.00416250598451    9.61798694695765    4.42749113174175
H        13.97933871044908   10.40747000226727    5.62266788160607
C        16.89350220437542   14.05019470093358    8.26892977521475
H        17.63860601265925   13.75075467435682    9.00138630042948
H        15.90551165611876   13.84549537589941    8.67501583441009
H        16.98730900035825   15.11971716339535    8.10271648947281
C        15.54981548887950    9.21690313908524    6.48396543058756
H        14.93493203693489    8.32359072634570    6.54706784045632
H        15.53062453241059    9.72221111211519    7.44749150309492
H        16.57254146331737    8.91264002104151    6.27478743997787
C        16.78215399169573   11.52844498752917    3.05326555432685
H        17.71714147361094   11.45802182453436    2.50276737479526
H        16.36399529515152   12.52370126992409    2.90942586815550
H        16.08061504785054   10.80812267216940    2.64134416677179

