41
CSD_code = ITUHAI | q = 0 | S = 0 | Stoichiometry = C10H24Cl2N4Zn | MND = 4
Zn        7.73991926032877    6.44409735030944    2.64355699083445
Cl        6.66581066203741    8.30273736461881    2.10121816624134
Cl        9.72593070415094    5.75226055332458    1.88593353295846
N         6.41978441772039    2.55277525627430    1.98380078006644
N         6.49437935029006    4.84101420643141    2.54544569735343
N         7.95735984141923    6.59378224621431    4.80224859311384
C         5.89269163990928    1.64409055503738    0.99453775617625
H         5.52805920604680    2.20549239590223    0.13899361080747
H         5.05675105576930    1.09347192071541    1.43579456907896
H         6.63702654123154    0.91565492449503    0.65622306146652
C         6.68361633314363    3.86973211652883    1.69553003342640
N         7.06370348939993    4.13648396363593    0.42482348725878
C         5.56257000865093    4.70842211983181    3.64751623746822
H         5.01354631566897    3.76363129106552    3.56732177704489
H         4.84327693033121    5.52845417226539    3.53447228214523
C         8.22438349904725    7.99481420673313    5.13563820436724
H         8.26691278879836    8.13850324163214    6.22226463858871
H         7.44358573115713    8.62732733560691    4.71813972428983
H         9.17552399112226    8.29610663232715    4.69999981722047
C         8.09435597775043    3.35551830940382   -0.22607068951928
H         8.33467788705044    2.47370298868153    0.35918445821315
H         9.00147046424148    3.96051327826368   -0.30818325787954
H         7.77230617199572    3.05630708447968   -1.22595375468976
C         6.68333166358424    6.20805992209533    5.42094263224815
H         5.93773596802634    6.94466504399675    5.11174655212307
H         6.78815102505705    6.26250550421945    6.51713050420955
C         6.89100353642522    1.92934453029619    3.19640817047323
H         7.52537761456405    2.62489407157183    3.73809670559105
H         7.48889820030281    1.04779940353681    2.94393535416361
H         6.06562972839462    1.60974594984760    3.84018825201491
C         6.17140978878811    4.81709212813914    5.04981117383338
H         5.37688674417016    4.56979500086888    5.75829413758017
H         6.96088381208319    4.07799265231016    5.17992247835754
C         6.85147293646387    5.43201269526496   -0.17978116609108
H         6.02266353583433    5.93933629121626    0.30841786206165
H         6.60623967193470    5.27719870844441   -1.23312839252050
H         7.74164669800488    6.06509856965600   -0.12536568916991
C         9.06050410604644    5.78176455423116    5.31033178651612
H         9.13172903731142    5.85143485656119    6.40300948818615
H         9.99228066832063    6.12737961119948    4.86778306423990
H         8.93401299742710    4.74078699276913    5.02452137014919

