48
CSD_code = ITUJEO | q = 0 | S = 0 | Stoichiometry = C15H26Cl2N4Zn | MND = 4
Zn        6.98699021565729    6.58324330980815    5.64687826459203
Cl        8.38100432642062    7.95121008711781    6.66976799601387
Cl        4.83280468906888    6.17547531214301    6.11567871400834
N         7.32415775085055    6.59513351053411    3.46423245216381
N         7.79347056895694    4.69783349400082    5.41715687592504
N         7.34535907129812    2.38324448492232    5.42014687003097
C         7.57031027044323    1.15213711548852    6.14124885143605
H         8.37776863623264    0.59725651430768    5.65381251600682
H         6.67806149424302    0.51990701639320    6.14452350281757
H         7.86198243540742    1.36660289434008    7.16540741137170
N         7.07548945587909    3.63899935247812    7.33911287486787
C         9.76273534569866    3.89864688858165    4.25067856333498
H         9.91955708111982    3.17004673906175    5.03313180268321
C         7.41790328073000    3.60230937639228    6.02728668222869
C         8.47192941815171    5.73471040939593    3.35512543300379
C         8.64750010817921    4.73481828641107    4.32642051539253
C         9.40657379814581    5.85376853789482    2.33618877696434
H         9.29117559942482    6.61545095800749    1.58161120700323
C        10.67858647159764    4.02945536130465    3.22651111026813
H        11.53720676797099    3.37613086770811    3.18681950274810
C         6.12980920750277    5.95432226363758    2.88212032176110
H         5.28436330266290    6.62836844713328    3.02100520026024
H         5.91526172152355    5.06038555629328    3.47184492499088
C         6.53192708862271    8.95597546412985    3.44104938651086
H         6.83559018071633    9.95491773688042    3.13709872457381
H         6.47561278355237    8.93692637210835    4.52978801253014
H         5.54197438157177    8.76360813345659    3.03484888600715
C         7.19770653179565    2.22014310399437    3.99631785668788
H         6.82092214976415    3.13571446975492    3.54982742755542
H         6.47687797343193    1.42028491883274    3.81017492737977
H         8.14579820363860    1.95941603757244    3.51312503694510
C         7.56035286725174    7.94956824198821    2.94413879968623
H         7.56557509353604    7.95982273276863    1.84742382386902
H         8.54620947028373    8.25586294052030    3.30228495364418
C         6.25305910473308    5.57093172041573    1.40974148125797
H         5.34729989481742    5.05409039013708    1.10284799439007
H         7.10122623556171    4.90833476386586    1.24761726297617
H         6.36908894053999    6.44640757685266    0.77602933826837
C         7.52364161405917    4.72740335987553    8.17971388722914
H         7.63961878744608    4.34311945459632    9.19473060301002
H         6.80688306495663    5.55449764555700    8.20557649083009
H         8.48324670564574    5.10071965394383    7.82910425786920
C        10.49953561716117    5.00697808411510    2.26457037016254
H        11.21126977367274    5.11953370996380    1.46134782107271
C         5.83752718525142    3.03795693712278    7.79589216175235
H         6.00031789871397    2.51702754240979    8.74108612466176
H         5.45124130707029    2.34242086633538    7.05808770128379
H         5.09009612904225    3.82268135944880    7.94486629997563

