46
CSD_code = ITUJIS | q = 0 | S = 0 | Stoichiometry = C15H24Cl2N4Zn | MND = 4
Cl        4.98704178413964    6.32696438331088    0.12389260903445
C         3.24426927919628    5.40669594853313    3.33555596875263
H         3.41852791946564    6.08910411998067    2.50522642556258
H         2.17042088633844    5.33755732205970    3.51882378227460
H         3.62434008011236    4.41602592276230    3.07118510839844
N         3.88516789745948    5.90587941096315    4.51869273146810
Cl        6.50268344491560    4.10907387315656    3.05946622506474
Zn        6.14467512988419    6.04173950214336    1.97676502705037
C         4.90617685583156    6.77095940805899    4.58491590979746
N         5.50282633008355    7.23880401625678    3.52322033986933
C         7.32422653091509    8.56661996700647    2.68382355505700
C         8.72621631109561    6.71309483526663    3.22607215195217
H         9.06843158789298    5.74876125319687    2.84970253754490
H         8.06516642545042    6.50785740960658    4.07000061545012
C         9.91699011019557    7.53455832117974    3.71204897646685
H        10.66270071471111    7.66355610034576    2.93182227459335
H        10.38848522146293    7.01242242100499    4.54066482726501
H         9.59923356409537    8.51580433081582    4.05927709063766
C         8.62421372758713    7.53204290097271    0.90695767153439
H         9.57411954004775    8.05910636760953    1.05647843170016
H         7.98230370969314    8.14378474384965    0.26796365603962
N         7.90736963053348    7.35312819519291    2.17678056105498
C         4.43361431675166    6.16546946560519    6.76816966178594
H         3.84426679026895    6.75381670992148    7.47869501958341
H         5.12142735033930    5.52728683875694    7.33262113946205
N         5.17999284148827    7.05934574743095    5.89453566213515
C         3.55603768381806    5.35100807616508    5.81146998594109
H         3.79072643462428    4.28074436403117    5.83646459237754
H         2.48777126099365    5.47776120352947    6.01376893897953
C         7.87552858185735    9.82169924924116    2.46841728315080
H         8.76747874859526    9.92744825212512    1.87149973742974
C         7.29987235550806   10.95718679751737    3.01305883904739
H         7.74736024164795   11.92223118106686    2.83206279846240
C         6.15692099633138   10.84966635111881    3.78584740626906
H         5.70310874140475   11.73123362893720    4.21247163052623
C         5.58407696360153    9.61232274872207    3.99716549623276
H         4.67290400897611    9.51755449365903    4.56957494803886
C         6.15308519417446    8.45876796701072    3.45214365563603
C         6.45420996174240    7.52149081325424    6.38282517809898
H         6.29847158896220    8.01215691964903    7.34421138518432
H         6.88536623116098    8.23999504540457    5.69150260855879
H         7.15359220270226    6.68851243782796    6.52087324796825
C         8.89870339238041    6.21159071920841    0.20125153121092
H         9.29690223386661    6.41268127448432   -0.79032030838054
H         7.97601638715763    5.64160987076140    0.08570672272110
H         9.62117881053048    5.60457909128569    0.74114636301471

