61
CSD_code = ITUNAO | q = 0 | S = 0 | Stoichiometry = C23H35AuClN | MND = 2
Au        4.27497668272719    6.10537009183467    8.70992412645932
Cl        2.34595507856088    5.84863615574223    7.58832880340908
N         7.13032720661771    5.84661260588560    9.23108051954202
C         5.99972965877163    6.30639732063581    9.66611003258762
C         8.31315730182748    6.08544828555001   10.09364963313229
C         7.72621111790284    6.95205496985168   11.22065994155388
C         6.20179480410811    6.98865775476566   10.98876400983861
C         7.25054351772690    5.14071689967677    7.99294276459953
C         7.07738530383548    3.75050078116421    7.96376597443118
C         7.32811979567606    3.08189083947745    6.77215429266944
C         7.70118852442924    3.76574670943615    5.63313243684849
C         7.74927286263751    5.14496150331993    5.64966333740780
C         7.51008342359024    5.85792120433646    6.81715653613887
C         6.51046825228671    2.96975882133486    9.12765919683777
C         7.36395600539558    1.75669840961483    9.50686314876547
C         5.09357068284573    2.50989093883613    8.76582574141306
C         7.41603830566863    7.36497123778215    6.74317074212138
C         8.64336299671151    8.00695946427070    6.09084429168000
C         6.15519356769040    7.73798777547230    5.95526894709487
C         8.87162442613989    4.76478443731059   10.62028158435832
C         9.42084947344661    6.80514553869566    9.32903470707129
C         5.41928498131730    6.20045824786457   12.05438249670636
C         5.42384470436442    6.90138292410244   13.40898790471884
C         4.85646420716764    8.31053555106916   13.28584615211919
C         5.66927679824177    9.10955468489211   12.27400986839237
C         5.64723642513125    8.41931395820092   10.91460529824625
H         8.14096369105969    7.95867816525008   11.17632983437051
H         7.97028538236945    6.53134235694039   12.19395143429433
H         7.21449343961576    2.01031493187315    6.73236677535893
H         7.90724536283802    3.22716556748807    4.72057940134345
H         7.96275371737368    5.67808623547512    4.73704199037169
H         6.42592679757793    3.62730883727584    9.99656653889263
H         8.40069000871414    2.03342386915892    9.68199678348257
H         7.34120134104796    1.00577678798135    8.72192187675635
H         6.97229226065667    1.30274011099918   10.41449128961910
H         5.11053147666382    1.83240580017765    7.91627375106211
H         4.46722417665026    3.36306195854090    8.50964689688436
H         4.64349629293140    1.99421894382451    9.61114649763183
H         7.30006551525895    7.77053668280241    7.75194460602349
H         8.58274558779186    9.08942476101024    6.18066356416390
H         8.69246124356673    7.76338193047896    5.03317310548797
H         9.56597811423250    7.67332528909273    6.55954378014065
H         5.27106425484700    7.30365005253177    6.41990671953956
H         6.21586300131598    7.37470736731911    4.93280619981813
H         6.03678157119303    8.81898091786775    5.93279435603583
H         8.13618662963911    4.23120553166278   11.21607153054956
H         9.73751082418633    4.96524136355989   11.24706951136787
H         9.18661118022817    4.13340377662454    9.79329852404394
H        10.28124776370670    6.93214080129276    9.98207785082348
H         9.09916528648553    7.78779128889686    8.99654551248699
H         9.72848680688339    6.22026804789792    8.46517810899378
H         5.84402691307871    5.19793678219062   12.15105362181641
H         4.38895825421237    6.09101303739186   11.70908793355328
H         4.82827921858169    6.31748071212168   14.11305136221364
H         6.44196575637457    6.95594204928708   13.80188708808707
H         3.81763187491619    8.25634108971111   12.95446068182387
H         4.87576614193854    8.80670665749558   14.25791953306661
H         6.69795073930812    9.20589243612247   12.62959468609783
H         5.25643181118875   10.11462313554548   12.17185814807033
H         4.61854225186861    8.37097148634661   10.55140033171336
H         6.22625920688116    8.99605412664028   10.18878768587128

