89
CSD_code = ITUNOB | q = 0 | S = 0 | Stoichiometry = C30H52B2Br2P2Pt | MND = 5
Pt        6.03389685172750   10.79757746981583    8.72730013148461
Br        5.91177138048768    9.68495251271610    6.36549524731260
P         5.25696030274175   12.74691065436861    7.70000318898438
C         4.72656866964374   14.09432447751419    8.86593842575905
H         4.30732447423984   13.62091435713218    9.75580835673992
H         5.65695958499304   14.57908087834984    9.17428341248332
C         6.32732141758143   13.75326271206407    6.57601098864711
H         5.75900404638068   14.65111535966376    6.31404943220368
H         7.19238039067477   14.06915046898442    7.16226321340467
C         3.81938492445512   12.49850377211763    6.56308226389981
H         3.53239609252372   13.47952342861825    6.17456174154767
H         4.20007777145791   11.90169459661417    5.73092342193307
C         3.75274247862043   15.14115043300326    8.34032604981917
H         2.78689130168474   14.70216086402281    8.10252489861467
H         4.13657478944220   15.63651531159659    7.45165723742702
H         3.59574386217807   15.90320313828786    9.10203457642473
C         6.79260227722004   13.05468907269745    5.30492352144497
H         5.96472539208833   12.87646175820706    4.62319648528377
H         7.25331679701669   12.09731973813442    5.52759905906874
H         7.52504769891345   13.67609619124088    4.79256086553616
C         2.61793706992648   11.78218956023207    7.16047859457265
H         2.21484668316374   12.31492949752392    8.01852744519265
H         2.89399647940415   10.77705719175801    7.47068738721496
H         1.83230715769744   11.69430862778577    6.41193126066860
P         6.57627514280126    8.66563843525741    9.40894193193483
C         8.21067203273271    8.09499951271046    8.75339598113918
H         8.43078714159375    8.71639648907250    7.88064592505155
H         8.95595813893279    8.32920625761211    9.51773214750375
C         6.63639335239885    8.32272818848196   11.22917213672412
H         7.24412332229592    9.10651924144307   11.68199796165623
H         5.61648646250968    8.45685297446777   11.60200511035906
C         5.37548248076803    7.38780529198751    8.83367556042680
H         5.51403228118024    7.25226760910306    7.76015403514293
H         5.60603242397696    6.44459926986835    9.33316695525636
C         8.31436787302699    6.63154846956408    8.33806225102395
H         7.66926827299900    6.42148492477259    7.48895372331247
H         8.05709136506177    5.95656224369152    9.14942518467399
H         9.33949898986867    6.42254408687962    8.03749288356528
C         7.18167493424743    6.96969402496345   11.66425085131503
H         8.22114339385740    6.85847643466557   11.36724421051302
H         6.60415778519916    6.14541948986264   11.25186854821476
H         7.13523177262242    6.89634193913052   12.74948934093274
C         3.93596071906260    7.80127020963790    9.10482655140457
H         3.69480312014005    8.69312987154555    8.52861042991295
H         3.77438742351045    8.01153104403159   10.16056210504232
H         3.25167525510233    7.01108155518138    8.80113887335783
B         6.30726806346883   11.60783371881482   10.65901609759442
C         5.36382191227991   11.39004575603396   11.87901112033109
C         5.89249612162378   11.43042138766588   13.19515269277345
C         5.09962094011872   11.12606266914591   14.29164963971811
H         5.54283606494234   11.14978711266788   15.27782741192162
C         3.76061890591082   10.79664678389073   14.16740386818814
C         3.22164748147725   10.79093970244971   12.89178140889682
H         2.17408226675049   10.55372925459649   12.76201598767543
C         3.98790416222651   11.07822195510895   11.77378086731586
C         7.32191220300797   11.76544812464825   13.49620740874704
H         7.95329805359581   10.88210975852853   13.39765160776187
H         7.41497676805699   12.12273193467773   14.51955533241944
H         7.70722117111760   12.52814138516915   12.82690988330580
C         2.91758821851800   10.49359472978805   15.36634174040849
H         2.41764918773727   11.40130349330462   15.70705833751917
H         3.52657636961369   10.11678646499688   16.18485002858104
H         2.15107880634660    9.75970968214777   15.12604665809232
C         3.27029839810924   11.07115961400446   10.46126862994427
H         2.80397291983274   12.04144352995631   10.29000664092571
H         2.48155074790660   10.32207400739257   10.45488928715943
H         3.96770504101378   10.87101956579398    9.63876057541484
B         7.79736007815400   12.12358322787224   10.36671720805015
Br        9.25560643690600   10.90368425354697   10.83412884171216
C         8.32794503077367   13.41341778333748    9.62581179305276
C         8.13565442153632   14.69649472311684   10.15880039909724
C         8.69347617991195   15.80709052360793    9.53946145201186
H         8.53257066540019   16.78518923632977    9.97268445098421
C         9.45531220722905   15.69057844975845    8.38880491870720
C         9.62528807814236   14.42587673527147    7.84464481549433
H        10.19616058979769   14.31420820488599    6.93277752356365
C         9.07092890109331   13.30087344447844    8.43557191267671
C         7.36081493361005   14.91167067831042   11.42933414020322
H         6.94952512995865   15.91899616652969   11.45718342837110
H         8.01955334391875   14.80238642756847   12.29223297589638
H         6.54784702986355   14.19509111670679   11.52818603384615
C        10.08187852138819   16.88810898656689    7.74234350221097
H         9.93249434492781   16.86682177755640    6.66393840644385
H        11.15609392036080   16.89336222243069    7.92933083439909
H         9.66180120516885   17.80982782367972    8.13829563417540
C         9.24040270464299   11.97609021433668    7.75070380177183
H        10.06604130959063   11.41394667980076    8.18698172540234
H         9.45670551738634   12.11756075663517    6.69408963780501
H         8.32863406846262   11.37094030052202    7.84471143525606

