109
CSD_code = ITUPIY | q = 0 | S = 0 | Stoichiometry = C55H48ClIrN2O2 | MND = 6
C         2.16639226832524    5.22464790794272    3.03667917083784
C         1.95203329529513    2.82149938583792    2.73049048913157
C         3.22638849401680    2.34359265934452    3.00996608758228
H         4.07585795002008    2.99164721853211    2.86273176385686
C         3.41282878940844    1.05699852751519    3.48011486756477
H         4.41687630235086    0.72590554446808    3.68778016734016
C         2.32484384374163    0.21115281508493    3.69072083389418
C         1.04913582762661    0.70019658109276    3.41490515277041
C        -0.23783932569258   -0.06198557694326    3.63474099879054
H        -0.07046997600366   -1.07215488339344    4.00173181036409
C        -0.96881864485082   -0.00685172495532    2.31580321664960
C        -1.42809382978699   -1.08758787162474    1.59206709894482
H        -1.27837753363090   -2.09282009375639    1.95774367025353
C        -2.08327966520817   -0.86604999247712    0.38863577132312
H        -2.44634094620946   -1.70585453864442   -0.18503316820601
C        -2.27478571014121    0.42146945123421   -0.08023390379855
H        -2.78651378356158    0.58242088033857   -1.01753359523047
C        -1.81353348456436    1.51015709079156    0.64659937479908
H        -1.96575722434028    2.51609195816443    0.28132502852579
C        -1.16188125150223    1.29046932848260    1.84242627822906
C        -0.59736185933372    2.35074543530932    2.75661875692519
H        -0.75964536974955    3.36536444297911    2.39354475539440
C         0.86003667494219    1.99083141325219    2.94018532223702
C        -1.03784380387409    0.80446941400110    4.57827605299960
C        -1.54349196489352    0.42855936534641    5.80526857205529
H        -1.39123664274438   -0.57498406000780    6.17446237054793
C        -2.24586099874518    1.35804866660854    6.56000755683719
H        -2.64191594635400    1.07382668310679    7.52370488625369
C        -2.44190779402228    2.64341432758963    6.08752931898589
H        -2.98932197388594    3.35924280771176    6.68237851073435
C        -1.93664890462717    3.02148218784917    4.85190513702190
H        -2.09069853487626    4.02479542111113    4.48195784619329
C        -1.23269395512021    2.10063294389890    4.10443120654626
C         1.22704420018464    5.88425921707754    5.82376905811342
H         0.55156688323337    6.39503830705714    5.14212332935760
C         1.47006306624372    6.65064353950616    7.10673768907322
H         0.86271423771972    7.55853530679117    7.09522449073055
H         1.13535730592846    6.05019164023081    7.95405863489483
C         2.94894085582489    7.04425015950700    7.27426606493509
H         3.19381691483042    7.15012547860557    8.33704563073637
H         3.10574211577352    8.01874862032171    6.80636212316776
C         3.90403502154461    6.06569770651057    6.63179943114109
H         4.85385272073484    6.51189029688192    6.34349563683845
C         1.17518998975384    4.56324761702532    1.13804144504714
H         0.82007491719627    3.86574730797334    0.40713056708339
C         3.67234593377117   -1.60632181097355    4.45750385765745
H         4.16282854231271   -1.00635156330994    5.23594958141813
H         4.30546183511400   -1.60462334432562    3.55978153264070
C         3.45871703792960   -3.03012696379637    4.94685343596189
H         4.41491567328056   -3.48500197651615    5.18837597969291
H         2.96857977269518   -3.61812760211870    4.17561444589913
H         2.83046755208833   -3.02805303527230    5.83345888748604
Cl        5.10776900377075    5.22664443582719    3.79833472431524
Ir        3.01002187912565    5.25453463578307    4.85353291098661
N         1.78119830663309    4.15622322015361    2.30110871144605
O         2.40135380217685   -1.06350339495121    4.15568868368720
C         1.96832792595890    7.63315835297429    2.75868535444133
C         3.24795976201977    8.10637201916720    3.02245323859742
H         4.09418902947685    7.45879040808623    2.85530906323451
C         3.44467289084228    9.38971320654211    3.49768726550279
H         4.45260089107219    9.71715763207874    3.69272484480844
C         2.36242726490472   10.23856312601207    3.72489250109049
C         1.08180703865020    9.75452943619101    3.46405386059277
C        -0.19917757687332   10.52387191374731    3.69311108818915
H        -0.02363895174579   11.53367597685201    4.05733990493789
C        -0.94015434408706   10.47078222827752    2.37943157183751
C        -1.39769967641852   11.55298971418273    1.65682872488548
H        -1.23943341482097   12.55798008563326    2.01957606551591
C        -2.06194874544759   11.33332774206288    0.45799239518660
H        -2.42337838873316   12.17433961797740   -0.11492953155052
C        -2.26427548948288   10.04621481379733   -0.00740435760613
H        -2.78278884747153    9.88675580460238   -0.94122253962092
C        -1.80498297165323    8.95599180462988    0.71838586646262
H        -1.96547256918574    7.95032948830970    0.35590781258514
C        -1.14431458245896    9.17382647458926    1.90955388034433
C        -0.57848480133101    8.11172894483869    2.82101677713980
H        -0.74826652774096    7.09730889118789    2.46078409755112
C         0.88206917847471    8.46530346901442    2.98980714422446
C        -0.99740540648090    9.66357737750308    4.64325444139628
C        -1.49397286655533   10.04570784777929    5.87216636737538
H        -1.33359613524220   11.04933533628744    6.23782519324206
C        -2.19746444461807    9.12223284027987    6.63331986401321
H        -2.58610081506631    9.41084200438729    7.59872758952474
C        -2.40326730297813    7.83677446020273    6.16499571112638
H        -2.95058430430230    7.12548791874011    6.76516339955615
C        -1.90762864338183    7.45275738462739    4.92713231157427
H        -2.07026908614578    6.44932064734168    4.56134971635520
C        -1.20244959009609    8.36756998590575    4.17309951164028
C         1.17927835689972    5.91594980745488    1.14635410949279
H         0.82691062886540    6.62471837904003    0.42498509813270
C         3.72639318732790   12.05556042307717    4.46420082987062
H         4.23100403283406   11.46039139126987    5.23739934694608
H         4.34262311949863   12.04702415119279    3.55483243887468
C         3.52376316178604   13.48292996345507    4.94786886637864
H         4.48487477871503   13.93835863076789    5.16776748538774
H         3.01945151163263   14.06615415594910    4.18216781212230
H         2.91271441101457   13.48769199212102    5.84638123755474
N         1.78767212307051    6.30439676674271    2.31419707294648
O         2.44938915035865   11.51265798703927    4.18982033562770
C         1.26147517320661    4.47915241536237    5.74464039841852
H         0.58528171881742    4.00771204013324    5.03367392184160
C         1.59240202360462    3.55890728419713    6.89608754291391
H         1.73431736263809    2.55765325333538    6.48189520347211
H         0.73749805437762    3.50398669518191    7.57956705686997
C         2.86196222815359    3.97590899283799    7.66087409587618
H         2.60291937062135    4.62061905873990    8.50220944452827
H         3.33368604003045    3.08197644025416    8.07397255770847
C         3.85563264404432    4.69378894952629    6.77507483294590
H         4.76292053383674    4.13410275473384    6.56072291931151

