63
CSD_code = ITUVEA | q = 0 | S = 0 | Stoichiometry = C25H33AuClN3 | MND = 2
Au        0.62778294000663   22.43866097968607    7.82014373765877
Cl       -1.23052177363362   22.37409133214992    6.55850133886745
N         2.81489719424976   23.72351556799719    9.31443827897947
N         3.90548553949245   23.59905686895150   10.03285679195266
N         4.11293414470923   22.31001429848343   10.11988544018756
C         2.27241277565586   22.55024985222748    8.92184907017729
C         3.15215258356988   21.61000139939475    9.46300621056456
C         2.27871621002370   25.00416831274057    9.02002562324487
C         1.41476213217996   25.59016317926714    9.94745619835890
C         0.90677206313378   26.84647125894282    9.65247643760319
C         1.23635074098662   27.48145486993800    8.46935032001137
C         2.07643498556042   26.87236919927314    7.55844605228256
C         2.61565546733352   25.61859348416489    7.81516399653490
C         1.08053660943816   24.87805739247544   11.23682592567610
C         2.06884721562663   25.31718980859475   12.32266843819744
C        -0.36122535205824   25.11364391277487   11.68383416006794
C         3.52312862467740   24.95447923755408    6.80854236936313
C         4.79077173839559   25.78570691686371    6.59672669792304
C         2.77927520366417   24.73141496637350    5.49025238055359
C         5.21852011415274   21.82719838873819   10.89512084490192
C         3.09320443197943   20.16078833724657    9.37221587365383
C         4.22252553122307   19.38756124112482    9.12218368034807
C         4.12576966647710   18.01203945945972    9.01558270922624
C         2.90727352211216   17.35850042972267    9.15572294947654
C         1.78117341483806   18.14432753372488    9.39863613964857
C         1.86383700823766   19.51601906841787    9.50126912398097
C         2.75884783422774   15.85082974318467    9.04709120513749
C         4.08745458683306   15.14428981485110    8.76409038089275
C         2.19964077643359   15.30974079848096   10.37084186720460
C         1.78994570006393   15.52780503016964    7.90099616218508
H         0.24267641628025   27.33329086808831   10.34773690102336
H         0.82770256176653   28.45721378786964    8.25358589530283
H         2.31428993943713   27.37546864260073    6.63461675238350
H         1.19584397850768   23.79981720746977   11.07752992818218
H         1.97814111011505   26.38620938332712   12.50114416358361
H         3.09143335440315   25.10633771031313   12.01533592004972
H         1.86504319665490   24.79151035705165   13.25296590239099
H        -1.04773807596185   24.91665795228941   10.86405992522293
H        -0.50855701144619   26.13295607096664   12.03058131330475
H        -0.60380636261455   24.44275697987495   12.50498551832101
H         3.82542734076502   23.97245785740553    7.18675331910681
H         5.30814716179952   25.93787784888481    7.54200175335772
H         4.55071340711979   26.75838292258642    6.17624160900172
H         5.46181266258950   25.27279522572604    5.91145798334645
H         3.41256792894402   24.18875573124416    4.79215439518850
H         2.49738990695447   25.67709906084447    5.03586258260752
H         1.87573404627819   24.14891085050965    5.66176673572052
H         5.41325278426021   22.54162511156010   11.69381388855634
H         6.11466132827095   21.74288339759555   10.27764532549094
H         4.97255020287768   20.85168913515875   11.31194270722388
H         5.18281746358912   19.85852234974391    8.96920770870675
H         5.02661352424859   17.45677769124865    8.81162084119617
H         0.81206197413633   17.68297939622481    9.50614577983060
H         0.97600286702131   20.10192944747625    9.68277478479881
H         4.51330665404901   15.47482143526345    7.81956533583343
H         3.91834864655717   14.07172543005643    8.69722089319091
H         4.80526050794631   15.32025121209251    9.56238996969665
H         2.09311863701152   14.22871840316625   10.31595093230586
H         1.22581333275675   15.73615649631113   10.59399991427754
H         2.87367870913371   15.54831910023757   11.19143947216798
H         2.16515980779738   15.93506456090677    6.96458301299912
H         0.80450612379214   15.94684506739287    8.08215048476345
H         1.68696424536110   14.45039062552164    7.79256794601072

