67
CSD_code = ITUVUQ | q = 0 | S = 0 | Stoichiometry = C27H33ClN3O2Rh | MND = 4
Rh        8.46767063958849   13.78954297936087   34.03098102961386
Cl        7.93198937327228   13.68068424901082   31.84291677389607
O         9.35898276615976   13.91342291493458   36.87736895875625
O         7.01656220131508   11.17355201854320   33.95234934848579
N        10.44921746826934   16.13499525867900   33.74948976516485
N        10.60378996397427   17.33804388398069   33.24114114524994
N         9.42888168245126   17.66657875396164   32.76483080806714
C         9.19581312806333   15.64155598372929   33.62859892933854
C         8.52038884762286   16.68244827916508   32.96794953917058
C        11.52335941880433   15.51389972692112   34.44287211847610
C        11.80914024480332   15.95807414897723   35.73804084361393
C        12.86058216855405   15.35516488684973   36.41183809848854
C        13.58730698629905   14.33734307128666   35.82238581217226
C        13.27944602063916   13.90756988997866   34.54746067587952
C        12.24386748770455   14.49106035600440   33.82728879825254
C        11.01378184041152   17.07952427728587   36.36533580457618
C        11.71781459442847   18.41120234155278   36.08293838747135
C        10.80375375047125   16.88970765064235   37.86721102503677
C        11.91720747554727   14.00395272453745   32.43685663872638
C        13.13770866615512   14.08897064622435   31.51842523212241
C        11.37617123318732   12.57442181267509   32.51356561837613
C         9.25693050135512   18.96382478896038   32.17831290309356
C         7.11565099743055   16.71844326111639   32.60132639892543
C         6.65161687607220   17.31036172699570   31.42919431202162
C         5.30950985622977   17.27049708581981   31.11076313837344
C         4.37720218551891   16.64600196001391   31.93532195735164
C         4.85054088960575   16.04817810488926   33.09888937031064
C         6.19103237877414   16.07904852064262   33.42798855118327
C         2.91390282330068   16.62168372594408   31.52793540878982
C         2.40827934044635   18.06372915775086   31.37657532945686
C         2.78860793955738   15.88042302391696   30.18929237054001
C         2.02809990727940   15.91049398084908   32.55413033632731
C         8.99294590319799   13.87316539555288   35.78554917865331
C         7.61439105004222   12.13764185924663   34.08646628260645
H        11.82606588112488   18.56356792674699   35.01125350946196
H        12.70811746717428   18.41224684703424   36.53263770292824
H        11.14555951325590   19.23615249069383   36.50187446756739
H        11.72741830466437   17.04004358611860   38.41962289662192
H        10.42763882776256   15.89143707854816   38.07462506375371
H        10.07694651034389   17.61421776122139   38.22836718414013
H        13.92551860406580   13.41573216285040   31.84596945600193
H        13.53443694032269   15.10233597216035   31.50414601720722
H        12.85436233354667   13.81353564596416   30.50540876554600
H        12.11515180964374   11.89409320430147   32.92977873451970
H        11.09353449685919   12.22943301647757   31.52230951613735
H        10.47851278219249   12.55674875717734   33.15397030342078
H         9.40687463396977   18.92159271691749   31.09804135283495
H        10.00372944945850   19.63004486445869   32.60828504799124
H         8.25442842839107   19.33239003563057   32.39149807706222
H         2.50576919232164   18.59842125475920   32.31948645059845
H         1.35932779131537   18.06229414907345   31.08847615180631
H         2.96698399111739   18.60481740691639   30.61788035062162
H         1.74302367656647   15.80834859060263   29.89747400497238
H         3.19394437549650   14.87511187802091   30.27939931584382
H         3.32838463067309   16.39417702641606   29.39860915676244
H         2.07566036315008   16.40320301536438   33.52282673405591
H         0.99385846582134   15.93323026996324   32.21664200205517
H         2.32053036469087   14.86946595141123   32.66709575189621
H        13.11277844924016   15.67635775964708   37.40913016410857
H        14.39828345871702   13.87476272144524   36.36500224694780
H        13.85143745789733   13.10806719565171   34.10375677101202
H        10.02033160098331   17.10503253044123   35.90256775181408
H        11.12951960574806   14.62835714352635   32.00439527623453
H         7.34142876614454   17.75868243948816   30.73052452204551
H         4.99252434893873   17.72715485659917   30.18529711969250
H         4.17693432184402   15.53699512712767   33.76641361783331
H         6.53303655000553   15.59794017124346   34.34524362789860

