73
CSD_code = ITUWUP | q = 0 | S = 0 | Stoichiometry = C15H36N9O12Y | MND = 9
Y        -0.83460721963958    4.26682319429508    2.17272818412673
O         1.06691156526272    4.79286238596366    3.27513578505274
O         0.19360683982753    2.87170268170548    3.44556101875127
O         1.39571248279814    3.63308826230298    5.01523250355240
O        -2.69996011698963    5.57003815156709    1.98788872458318
O        -1.87159991498401    4.56036848551370    0.32046352329690
O        -3.10588961146667    6.25932280579091    0.02223445334563
O        -1.12685368839475    2.06818676491992    1.33906943522339
O        -2.44442327930919    2.96743639524282    2.73461943473628
O        -2.33369672402584    0.85424376377763    2.59702120328672
O        -0.28990652933089    6.39826058973153    1.50244985159166
O         0.90630598566351    3.79154630519822    0.71463244483016
O        -1.28875864057196    4.93730206786063    4.34176350618036
N         0.88114706256089    3.77529535484960    3.94281064122830
N        -2.56864875590640    5.49340065552957    0.76640853537428
N        -1.96462422147712    1.93427578107873    2.23078421677939
N         1.21536065653616    7.14957707913412   -0.00372027836219
N         1.47624310679303    7.67163025315479    2.24221047058291
N         2.26773971032388    1.98888043096433    1.16377824204783
N         0.99176332530561    2.07399152216073   -0.75850056342697
N        -2.74788497284182    3.77771333221560    5.68318894177849
N        -3.04745583692976    6.03173239025429    5.25165049659677
C         0.76809746755898    7.00958739964996    1.26039708260738
C         0.54090491927706    6.44826315211566   -1.07527304573272
H         1.26754197508078    6.21062994480666   -1.85185650143962
H        -0.26239037847853    7.05624389694351   -1.50014908064711
H         0.11622425652307    5.52605150053764   -0.68381140896839
C         2.13543673405990    8.18073314272347   -0.42008779143824
H         1.70051490039241    8.72139191923213   -1.26386994740232
H         3.09029569908569    7.75533193061374   -0.74142623203186
H         2.30537571542736    8.88158631652207    0.39281942848119
C         0.75916417377440    7.87221121260603    3.49067676471354
H         1.35160614995859    8.54202835186803    4.11201998064789
H         0.58470671870625    6.93312435147914    4.02289479359549
H        -0.19757324000854    8.33903970780408    3.26585253906533
C         2.87177320487370    7.31987530431188    2.44425504768430
H         3.42087387846669    8.19835357597006    2.78892202710031
H         3.31278712598642    6.95681305099819    1.52141798778495
H         2.94909606547749    6.52921127202604    3.19629871359500
C         1.32685669716997    2.65742500598360    0.40639866211586
C         3.09445935245695    2.76433954047259    2.06812235286451
H         4.13839731047347    2.47644171370257    1.91370084327995
H         2.84516758466926    2.58323761629778    3.11625945675252
H         2.97680982234623    3.82397200547481    1.84929976627249
C         1.97523758664519    0.64863849837634    1.63898198295233
H         1.65065719037618    0.68853818465031    2.68369689790484
H         2.86790429610319    0.02283460203448    1.56888836439404
H         1.16629678590380    0.21126619534934    1.06415799222155
C         1.69897962715555    0.95966700436280   -1.34111428435614
H         1.85078079286534    1.16701633291569   -2.40306783375235
H         1.13034983551397    0.03020499848351   -1.25404552924026
H         2.66816098093875    0.83744482977227   -0.86589029099102
C        -0.10967792355945    2.56559678262798   -1.55427230632291
H        -0.72800087791820    1.72289332733172   -1.86515127067167
H         0.26097152456818    3.08599924086692   -2.44158299527880
H        -0.71658125317078    3.24249611599619   -0.96104344963449
C        -2.33653769765806    4.90885733656288    5.02366545277170
C        -1.77945586951390    2.70959286117466    5.85020367914399
H        -2.07539247771326    2.12820707353279    6.72441674334747
H        -0.79331707114809    3.13459825887846    6.02499130563485
H        -1.73587185150906    2.04236280293213    4.98499242469802
C        -4.09948134953761    3.28279200780357    5.49034185338379
H        -4.49937622876747    2.91555643752457    6.43827431080485
H        -4.08672950512387    2.46143528976851    4.76824854689520
H        -4.74197989916703    4.06250669529500    5.09554226325418
C        -2.75167382624907    7.24365053966376    4.52391432720838
H        -3.68635154815812    7.71280205420975    4.21487375619881
H        -2.17392561813031    6.98974164340104    3.63920787273745
H        -2.18532435438748    7.94010634443596    5.14945234293964
C        -3.99682172354064    6.18472896937632    6.32705018959075
H        -3.78068658295650    7.11924539756858    6.85061502615578
H        -3.90492406792138    5.36235004748540    7.03100633345645
H        -5.02333624997853    6.23389956244860    5.95367408477589

