97
CSD_code = IVAJOF | q = 0 | S = 0 | Stoichiometry = C38H54N2O2Pd | MND = 4
Pd        2.84000499048354    8.12858209011132   25.12165029252390
O         2.25972712355653    8.54067150031922   23.21166944462659
O         4.52027418402250    7.35116700161371   24.26392678560492
N         1.10854147209662    9.02297898021553   25.75556935920582
N         3.59902376503938    7.55631473175010   26.93399798998668
C         0.08775992321047    9.21149458768809   24.97956348531447
H        -0.81840432973044    9.60985589727901   25.44940084941803
C        -0.03607215490395    9.03807160602553   23.58088957465820
C         1.08834925370666    8.76177902222925   22.74525113426362
C         0.85980920001253    8.78331737469023   21.32423326439904
C        -0.41254233993480    8.97324315926445   20.85599414097017
H        -0.57489559140019    8.96399924687988   19.79180189866167
C        -1.53664997559781    9.18748501703130   21.67789804745809
C        -1.31882836131425    9.23919103603786   23.02530679289536
H        -2.12697789209097    9.42959364697679   23.71455814933585
C         2.03830847559580    8.58668639874680   20.38111859235783
C         1.64235898672854    8.64963830218658   18.90166251388967
H         1.20833620702178    9.61456021132575   18.64718779700228
H         0.93996384919331    7.85948388821325   18.64421027948568
H         2.53342031698069    8.51401404599702   18.29149367871139
C         3.06117746023305    9.70160489864615   20.63864783034778
H         2.61463928190845   10.67330102933784   20.43253505598554
H         3.92832867974409    9.57442729361109   19.99451555770838
H         3.39188453442856    9.68357285932971   21.67234588782603
C         2.66347016841912    7.21157379971038   20.64408174048222
H         3.51049094304797    7.05201176150460   19.98097391969975
H         1.93009353915193    6.42665413057412   20.46572506156829
H         3.00642315238070    7.14294603734543   21.67124433546761
C        -2.90121074500340    9.36224156812835   21.03072654045063
C        -4.01300272441148    9.57602749523198   22.06175837255433
H        -4.96756387840105    9.68596279896820   21.55070697996099
H        -3.83768485239328   10.47819044518504   22.64349126893056
H        -4.08752207309821    8.72563591631178   22.73586237545423
C        -2.87073565797463   10.58364559178806   20.10091709106337
H        -3.84776203657648   10.73488161845910   19.64589110531930
H        -2.14188920528743   10.45814378721271   19.30514550936276
H        -2.60910543132864   11.47735358763714   20.66409798428187
C        -3.23727997192026    8.10136103407068   20.22134555380875
H        -4.22281085672983    8.19487220972612   19.76908785576395
H        -3.23567189868745    7.22801238220606   20.87067401865137
H        -2.51409545938059    7.93557480831164   19.42776836399285
C         0.91159840914285    9.40538080292443   27.14499198773720
H         0.15704605947046   10.20554840590083   27.18818769123876
C         0.38214494810017    8.20726229685679   27.95690300286183
H        -0.61110834110180    7.93329873107182   27.58797786576227
C         0.30652856045023    8.60032751224809   29.43252209674271
H        -0.29230013396603    9.50688609552430   29.53330090384751
H        -0.19522719856631    7.81200944431357   29.99488208139293
C         1.72762195017433    8.82726761932858   29.96998510046814
H         2.01899004610042    8.01789895346140   30.64132613598829
H         1.77998614179333    9.75762385448881   30.53663705950777
C         2.70655336004408    8.88603870267890   28.79721925103116
H         3.70526047307158    9.15845638182076   29.15226916624161
C         2.21908020106764    9.90985013955546   27.77652181147200
H         2.06113420828201   10.87042026990615   28.26853831816953
H         2.97061499212296   10.05229581549408   26.98377254819138
C         1.34247356538638    7.03347650919277   27.79118677478122
H         1.04141832754616    6.21851459176728   28.45059740254379
H         1.31998685133361    6.65960898298737   26.75498769439784
C         2.76816444014699    7.50017025547554   28.12626279942361
H         3.22122468469543    6.79560981681626   28.84027107987159
C         4.85614176069895    7.30547813128261   27.12350355074485
H         5.16729165209248    7.10921991806017   28.15557346782193
C         5.90864347746075    7.17795161127427   26.18665097373919
C         5.67386283278723    7.14306410560194   24.77859965250376
C         6.79941268660782    6.81458535815467   23.94361065425665
C         8.03167267305575    6.65223753577440   24.51815418897586
H         8.87009787979930    6.42937671746678   23.88069409503958
C         8.28152878767429    6.75138758606385   25.90118796563759
C         7.20632092169137    6.98759985295305   26.70971059381712
H         7.31523573837608    7.04295073432613   27.78183517808743
C         6.59012915255113    6.66375039692208   22.44335435221457
C         5.56607880670539    5.54609364954023   22.20248721508341
H         5.93986563592371    4.60430746528462   22.60153908560149
H         5.38451004983193    5.42380683224143   21.13705635053183
H         4.62488611616699    5.78045995641667   22.68959876158168
C         6.07877652607843    7.99292888814060   21.87550317558626
H         6.80984226512399    8.78076925553748   22.05017851667619
H         5.14401651204010    8.27141823557815   22.35084249134029
H         5.91385171783137    7.90403253341627   20.80426804005648
C         7.87255172096415    6.29083857349196   21.69107174183537
H         8.63196390148884    7.06357085329921   21.79210566894780
H         7.64323086896709    6.18700317387966   20.63206566402000
H         8.27553000516626    5.34175775012584   22.03915914031234
C         9.70199341952726    6.56933943741542   26.41149785206727
C         9.80094152716102    6.73276564494733   27.93078138839013
H        10.83659838543545    6.61379158116487   28.24332881290121
H         9.20692764731153    5.98010267075489   28.44410386148972
H         9.46741460003416    7.72128189741939   28.23822312837450
C        10.19324743398736    5.16100626098546   26.04869083243554
H        10.20952510680335    5.01258547076236   24.97261087273987
H         9.53688160089576    4.41107605223547   26.48549495262300
H        11.20052311166413    5.00364344609241   26.42950402534957
C        10.61070687177600    7.62099224900170   25.75966017884771
H        10.63295689572470    7.51114465184324   24.67914419759732
H        11.62847039943429    7.52245061704810   26.13232194990268
H        10.25219969519379    8.62156292581847   25.99242017183099

