97
CSD_code = IVAJEU | q = 0 | S = 0 | Stoichiometry = C47H41Cl2N2O2P2Re | MND = 6
Re        1.25067419918416    4.10195389601637    4.08100067027672
Cl       -0.97828702969006    3.39655254212870    3.44903622749705
Cl        1.50573575622373    5.08143518035734    1.99803071211950
P         2.37821551005811    2.25209941033752    2.93088541539953
P        -0.31021631736031    5.88873573720772    4.65813074956696
O         3.33440741599808    1.57574032953828    6.51915992774607
O         3.59703129115418    4.71099928598116    5.72710101790751
N         1.23703324918991    3.20635000664534    5.60481949139873
N         1.25145975580739    2.49102880144639    6.57309352493881
C         2.22172480494504    1.62115150081961    7.01639070405287
C         1.74943550121731    0.74458502820214    8.10314718326834
C         0.50371683881219    0.92510971663805    8.69911261204813
H        -0.12169500219396    1.74294228888441    8.37461856637864
C         0.08447062421746    0.06400464224185    9.69479863381093
H        -0.88073297490762    0.20486857201892   10.15925060691765
C         0.89811065562730   -0.98368309818746   10.09863047347666
H         0.56435371576578   -1.65687172250583   10.87484822165217
C         2.13801435968988   -1.16856110755136    9.50735599822524
H         2.76980688865617   -1.98598647009119    9.82279528376560
C         2.56436985326555   -0.30779638553314    8.51478819881598
H         3.52387969943221   -0.43333612158805    8.03602043693600
C         2.99632190851373    4.99145712236073    4.60642191622750
C         4.80458012910613    5.45932855293271    5.92439257778797
H         5.64211078831763    4.77449075941152    5.76176537523866
H         4.81673186933650    5.80322459579572    6.95978181542862
C         4.76294894592360    6.58578044080375    4.89292424377704
H         5.73939365344578    6.76801900083222    4.45182088371357
H         4.40224495587450    7.50900087534228    5.34769154750642
C         3.74459207517565    6.06449824135389    3.87388744902955
H         3.06797299350384    6.83454027260474    3.50594875854616
H         4.21768310419283    5.60852237475376    2.99929321441523
C         1.84112238006490    1.71216013196027    1.27946814797765
C         0.66022542949632    2.14744521841493    0.69663943934205
H         0.02709285053599    2.85446095328075    1.21074164062547
C         0.29313892011977    1.67188653974401   -0.55110355649621
H        -0.62438395454759    2.01704322415914   -1.00441294850511
C         1.09554974122830    0.76034916769195   -1.21365544054921
H         0.80824786180039    0.39286407898375   -2.18820533950727
C         2.26945003538094    0.31279780375921   -0.62556768916300
H         2.89404331381805   -0.40391994568520   -1.13928028289943
C         2.64195424411505    0.78202814989526    0.61818698285354
H         3.55582296612066    0.43429943535917    1.08148033592838
C         4.13558372276453    2.63732732770648    2.72170955693687
C         4.97576120639929    2.55457522226685    3.83154617577638
H         4.58000912083631    2.19561721336495    4.77185059155797
C         6.29805663054877    2.94375687329280    3.71886319841787
H         6.95835461343520    2.85760859454244    4.57062363744882
C         6.78125045707997    3.44347528172490    2.51847749346874
H         7.81437999902905    3.74931728847546    2.43643782518774
C         5.93672592811893    3.55982002224600    1.42687130954905
H         6.30702263815117    3.96544800429432    0.49647627480053
C         4.61506212687905    3.15941024984964    1.52475920577569
H         3.95023209370085    3.25985633727326    0.67837416212943
C         2.29732073340692    0.66650599124981    3.82158999417526
C         1.05748172481747    0.33815985548718    4.36454525957453
H         0.22198593693178    1.01345915623860    4.22438663154845
C         0.90361404076597   -0.82719295932616    5.09050795199435
H        -0.05403023052506   -1.06843666429332    5.52816664337075
C         1.98307804889942   -1.67723435674607    5.26829953355072
H         1.86889912818172   -2.57997650226441    5.85059952551395
C         3.20827431278178   -1.36779153262232    4.70288092908252
H         4.04805257284403   -2.03470533775603    4.83520349228179
C         3.37006445998030   -0.20049154355067    3.97814234857628
H         4.33395500346141    0.04109501207275    3.55414119993077
C         0.45314977371926    7.30742672643245    5.53231546631099
C         0.22108510234168    8.64867675074315    5.25915214212498
H        -0.44791189663865    8.93610586207183    4.45994915078773
C         0.85119476086712    9.62640920974448    6.01118070849200
H         0.67234744826780   10.66874525232644    5.78972684702549
C         1.70410018547697    9.27483586330401    7.04308173582464
H         2.19485740169055   10.04245255777662    7.62339466270972
C         1.92291196377855    7.93666926310627    7.33341694142715
H         2.57824515898367    7.65924515441929    8.14658891758649
C         1.30085057998289    6.95928897980755    6.58165733170551
H         1.46262354263457    5.90823878465924    6.79314789253990
C        -1.17502803974306    6.62789836576269    3.25179478264451
C        -2.49338225087016    6.28749809935010    2.96771410843429
H        -3.02359725038456    5.60231389959699    3.61412639379774
C        -3.11012966255475    6.80719217660070    1.84453603777845
H        -4.13279230539868    6.53803810712002    1.62338985587636
C        -2.41636228684007    7.65598237816859    0.99758786684675
H        -2.89981618641519    8.05356162631910    0.11693246509035
C        -1.09788480543445    7.98326306134136    1.26967459052039
H        -0.54984560160091    8.63036311240337    0.60025159715161
C        -0.47381900859864    7.46868528104814    2.39045649490315
H         0.56380451131445    7.69951361665451    2.59024112188993
C        -1.62376477479943    5.53738238225855    5.86874003418434
C        -1.73808964557466    4.30417399636928    6.49443587596330
H        -1.06247653952755    3.50498268597036    6.22769793151433
C        -2.73126916176324    4.09788065823077    7.43638888213024
H        -2.82304789623171    3.13444660804954    7.91629815943566
C        -3.60829199529836    5.11906097203029    7.75859642390734
H        -4.38522516082359    4.95522113470673    8.49100542609460
C        -3.49162551100875    6.35422315018881    7.13964170388869
H        -4.17513453649433    7.15253494444653    7.39028940039059
C        -2.50083642363125    6.56703193357767    6.20085399308240
H        -2.40592676412055    7.53085484509058    5.71824838996485

