53
CSD_code = IVAKAT | q = 0 | S = 0 | Stoichiometry = C22H24ClN2O3Re | MND = 6
Re        2.93030681216099    2.10119421369232    3.09432611083508
Cl        2.92213782050648    2.80746606374904    0.81356965522716
N         4.13381452381869    3.83260393658289    3.46124839510497
N         4.90196059482338    1.52563112692296    2.46380339207189
O         3.22506380652463    0.65351683352748    5.80712295741112
O         0.34533762536506    3.62619992778619    3.83741764804853
O         1.45872783534477   -0.27722049831283    1.78580908457910
C         6.28807058737768    4.95351888877971    3.06561139431556
H         5.87434683495371    5.75171235794063    3.67829877825088
H         6.48525641460960    5.34740586888093    2.06867101296467
H         7.23238614745530    4.62540254043546    3.49880486577096
C         5.33056527777036    3.80675966632031    2.98599268836709
C         5.76585045154452    2.55635596379193    2.36517710401704
C         6.98362416097007    2.42418403891289    1.69691265861590
H         7.64890547626080    3.26741370633591    1.60898982683879
C         7.31550976763055    1.21102000925614    1.12614923578458
H         8.24411781089603    1.09332237627851    0.58896138587993
C         6.42949068204642    0.15085982940278    1.25537381773517
H         6.64667915588735   -0.81516868413195    0.82975458156014
C         5.24014519702116    0.35788043309787    1.93095638927540
H         4.52378464755437   -0.44605940186914    2.04086067019796
C         3.63522362062842    5.01558227384617    4.07513009233308
C         3.60717316097816    5.08828759646940    5.47451433546251
C         3.07886348129353    6.22203797673491    6.07385453216035
H         3.05771293372993    6.29156591743815    7.15003096034128
C         2.58141263334814    7.26280066675868    5.31527607151268
H         2.16485549379876    8.13500988311925    5.79634656375026
C         2.62459001462741    7.18439498506043    3.93848476358561
H         2.24032639646278    8.00213456361494    3.34914880147151
C         3.15792932523921    6.07692302699842    3.29256650248968
C         4.15739318058300    3.97957934710059    6.34112886336535
H         4.46866869827363    3.14681732485883    5.70168240719524
C         3.07697814922410    3.46032163312360    7.29144892413028
H         2.80859600833497    4.21270342494216    8.02824219901217
H         3.43463632496287    2.57815325410871    7.81638510108978
H         2.18578288799947    3.18946046992855    6.72883495072263
C         5.38640208999804    4.45761426940679    7.11883323550833
H         6.16422443616308    4.80274748923164    6.43966990948834
H         5.78730170843422    3.64159329879609    7.71571360040255
H         5.12942475353018    5.27624842170972    7.78633715194331
C         3.17916338684216    6.05241115227180    1.78241965324395
H         3.67604946772717    5.14452270051194    1.43284417650637
C         1.74960897791631    6.02058485640159    1.23766985001094
H         1.23128596416473    5.13526993602630    1.59757878525004
H         1.77160431598617    5.98077698948033    0.15118047807226
H         1.18911338228840    6.90018946183057    1.54544563434573
C         3.94093619030446    7.25486932791911    1.21820779349571
H         3.40397057951744    8.18185633159801    1.40352253312508
H         4.05786853557152    7.14222215268010    0.14250958689161
H         4.92969594189880    7.34056023284335    1.66616353789800
C         3.10129472012174    1.25275265816143    4.83336998822742
C         1.27475150722599    3.01209564542062    3.57251845905398
C         1.97098010230103    0.56831353422532    2.35802890505844

