95
CSD_code = IVAKAR | q = 0 | S = 0 | Stoichiometry = C46H40Cl2N3OP2Re | MND = 6
Re       29.09709365799445   10.14381225323378   23.14807029462575
Cl       28.83852424764223   12.43416741372607   22.51485834201148
Cl       30.54201327999320   10.54021640582804   24.85264580581324
P        30.98268321397274   10.15696034795042   21.57163823840291
P        27.43573760977197   10.31991537736296   24.91260545693266
O        28.85673514013973    7.22564385384005   20.80747520386317
N        28.03099356764683    9.56113852200309   21.87198157198554
N        27.47156425783757    9.02695446880880   20.92987548715331
N        29.40113850207950    7.81778173200660   23.64586182039143
H        28.50358684185408    7.46724042550242   23.98362919362404
H        29.54347343381381    7.39277024822139   22.72292961699816
C        27.95184259049496    7.89938314836852   20.31480631576608
C        27.33001739496516    7.62021135475993   19.01236442601206
C        27.85362113880731    6.59905359418860   18.22235234309267
H        28.67726818721905    6.01740742102251   18.60842434721897
C        27.32781979538081    6.35189348389339   16.96943728363378
H        27.73817954986708    5.56235437815558   16.35690858146204
C        26.27495090211729    7.11928419749191   16.49732095119668
H        25.86525861012213    6.92760326072109   15.51616679745121
C        25.74696173605711    8.13372130583732   17.28195072887658
H        24.92541352876167    8.72834941932317   16.90983091751025
C        26.27120874213075    8.38845611831822   18.53397410522260
H        25.87702180778822    9.17837134180187   19.15431007882172
C        30.44821188859633    7.38898414160138   24.57655055895026
H        30.25720381743430    7.84120340876162   25.55602981830319
H        31.41645480080933    7.75016396761503   24.21717577748524
C        30.48686430194311    5.94525763497026   24.71570402285376
C        30.46400497132823    4.75176372416981   24.80032103536278
H        30.47229468326546    3.70637755909577   24.88726249893735
C        30.46649591247191    9.90491608814384   19.84170003066626
C        31.06183383385122    9.00630619204134   18.96507930750268
H        31.90922001203276    8.41479741383277   19.27981354548183
C        30.56995276298932    8.86787853178929   17.67858254872564
H        31.03035624812728    8.15928075064737   17.00535894069899
C        29.49443402075983    9.62839013072515   17.25384089975259
H        29.10645467471675    9.50446417290639   16.25356621840131
C        28.91834176711599   10.54870810473697   18.11429609820718
H        28.08641563134173   11.15221409785255   17.78394010662482
C        29.40040084061563   10.68731414745950   19.40149863635775
H        28.94955984635517   11.39811936252227   20.08180040829713
C        32.26422442594847    8.90941567844288   21.88864792023582
C        33.46510695306295    9.25982853534025   22.49781692586089
H        33.67107336483600   10.29631456311690   22.72480185578278
C        34.39175867917802    8.28255829388500   22.81667826073042
H        35.32239220745630    8.56163680931606   23.28892386450038
C        34.12761439076777    6.95212726666935   22.53659360326278
H        34.85285342382613    6.19247358778831   22.78824989911642
C        32.92767335882923    6.59611652712914   21.94069244777773
H        32.71283463266778    5.55848353104032   21.73208889319993
C        31.99493590404935    7.56617979046749   21.62353029089179
H        31.05326502364756    7.28766830273895   21.17176367295113
C        31.95388575795214   11.69355829703324   21.43033461625195
C        32.09468177990297   12.54859697357741   22.51750081841858
H        31.60322250047072   12.32096433768667   23.45148390344977
C        32.85984832922194   13.69528820188998   22.40529663891184
H        32.95957602489943   14.35756128715765   23.25271967458034
C        33.49209930837802   13.99473035711664   21.21082407855224
H        34.08703820740982   14.89211214024068   21.12255129946799
C        33.35908189996936   13.14271089841110   20.12636748782337
H        33.85139402181247   13.37354183633873   19.19266811105144
C        32.59372159698516   11.99640830016234   20.23144730897971
H        32.48822297814603   11.33751231150343   19.38091207197357
C        27.45178069715069    8.83544983222887   25.95965308212242
C        28.27291977020211    8.76571642134306   27.08171369264009
H        28.82726120299943    9.64059330881755   27.39311680410558
C        28.38190555505023    7.58161560878422   27.78986890655074
H        29.01627064349864    7.53529910079649   28.66290589123568
C        27.68846478944763    6.45589313912715   27.37641737313050
H        27.77649212556546    5.53376004939549   27.93065273837579
C        26.88859017895193    6.51118211487027   26.24570897399186
H        26.35643029180320    5.63122325891714   25.91535654751481
C        26.77682107258709    7.69147091999937   25.53327684312873
H        26.15908927214993    7.74080102580132   24.64482649744798
C        25.70173396953525   10.47711238114631   24.37451099892016
C        24.63121833018587   10.03998681010753   25.14749342284470
H        24.80521108895358    9.53351547094098   26.08664649170465
C        23.33592683432821   10.23886398710862   24.70628324863216
H        22.50667972343393    9.89333990193527   25.30674575722117
C        23.10038626207632   10.87881541518592   23.50011455155694
H        22.08603360630183   11.03073002338469   23.16127530822249
C        24.16437102161868   11.32178345787421   22.73202892398269
H        23.98311629538841   11.82259934252016   21.79284068858453
C        25.46251452201889   11.12366229552688   23.16597785119132
H        26.30044614584457   11.46566490622122   22.57283174891386
C        27.52786108213196   11.68124722317593   26.12005732015966
C        28.23107418918239   12.84248171937298   25.82654692671112
H        28.74632122884980   12.93826429457326   24.88197954805100
C        28.26615787371566   13.87971739179726   26.74259775143222
H        28.81969837361067   14.77754586474653   26.51071628443659
C        27.59594181902257   13.76783985373165   27.94789287189686
H        27.62623140736667   14.57654628524888   28.66355762740331
C        26.88132605577205   12.61555780742296   28.23743559921671
H        26.35290812138297   12.52686384722895   29.17588959807052
C        26.84311064996181   11.57562650798730   27.32913711239004
H        26.28869328022958   10.67761310470842   27.56431101377355

