69
CSD_code = IVAMOJ | q = 0 | S = 0 | Stoichiometry = C36H28BIP2Pd | MND = 4
Pd       -0.00012244595588    0.00009253836108    7.60423713835915
I        -0.00007301387542    0.00041428658190   10.24973351831675
P         1.68935387420126    1.45353169883632    7.35656629252724
C         1.09069084288133    3.00280709324330    8.09888457719787
C         1.63819128921096    1.92151736503852    5.59695486703841
C         3.42288888814279    1.32366533992483    7.85119990841465
C         4.42774932436695    1.07049095976598    6.92283976676234
H         4.18350339008308    0.99782413224647    5.87097505573008
C         5.73364436501778    0.91435654900060    7.35097657025283
H         6.51610650312115    0.72777978152877    6.62951099488737
C         3.72541698877944    1.37547448795761    9.21127483462100
H         2.93325646401856    1.53494235119944    9.93110579338063
C         5.03240590868576    1.21423235607006    9.62985695378146
H         5.26683889449684    1.25755886272249   10.68291528083137
C         6.03715418433301    0.99120567530430    8.70083895539616
H         7.05849593056997    0.86769151858994    9.02971950966548
C         2.12745081944749    3.33255749990529    3.73065235429756
H         2.68396769299441    4.14602803467523    3.28811205598979
C         2.36462216779619    2.96493826005192    5.04339050807996
H         3.09697189549410    3.49311596745880    5.63933255074735
C         0.67702584600033    1.20711860955955    4.85556854974483
C         0.44178475665921    1.62515293511323    3.54276248473487
H        -0.32291737192292    1.13349210025248    2.95775022450298
C         1.15528776048878    2.67317012609723    2.99102754284842
H         0.95669569945095    2.98287782029313    1.97477580048076
C        -0.29467578433703    3.12650174527220    8.20342875759231
H        -0.94251352399279    2.29892436938871    7.87478768953532
C         1.91399250209214    4.03941930294126    8.51956287301789
H         2.98867312589848    3.94240546438681    8.44652974140327
C        -0.02414400345531    5.30368010132489    9.16128643784429
H        -0.45568675124396    6.19747757385947    9.58685120344627
C         1.35142896971688    5.18583825617692    9.05252005296509
H         1.99090413168055    5.98833675628983    9.39038903041163
C        -0.84922164891898    4.27475688071632    8.73410270577264
H        -1.92144038386205    4.36552879758873    8.82686736812551
B        -0.00006996356561    0.00002414878330    5.57650687276873
P        -1.68950249927237   -1.45348269888468    7.35665543026130
C        -1.09063066127440   -3.00262911519535    8.09907519911074
C        -1.63829219901864   -1.92153102189086    5.59706892983812
C        -3.42304506876709   -1.32375284770074    7.85128154065847
C        -4.42794647056673   -1.07076950183614    6.92292431626024
H        -4.18375366323815   -0.99815981861914    5.87104462390360
C        -5.73386181764149   -0.91485261615747    7.35106479315366
H        -6.51635427733373   -0.72837426339702    6.62960553714850
C        -3.72555563664805   -1.37556074252109    9.21135626900874
H        -2.93337295005953   -1.53491658164506    9.93118747699385
C        -5.03256549451851   -1.21454850615117    9.62994324320625
H        -5.26696828470894   -1.25778578340512   10.68300993405618
C        -6.03735402517106   -0.99170216578823    8.70092902712661
H        -7.05869332888762   -0.86822067659879    9.02982179303418
C        -2.12747325770506   -3.33270289298657    3.73084897854779
H        -2.68389208819560   -4.14627588405598    3.28837000342513
C        -2.36464544468393   -2.96503762507183    5.04357294992285
H        -3.09694735136112   -3.49326005327606    5.63953536807162
C        -0.67722292567146   -1.20706708652557    4.85561464703730
C        -0.44205471064675   -1.62508083849964    3.54278740471494
H         0.32258405618503   -1.13338698329555    2.95771911289468
C        -1.15543665373729   -2.67322504731648    2.99114225669868
H        -0.95680459614626   -2.98301133555564    1.97492394639132
C         0.29476171225584   -3.12612294458521    8.20351624550937
H         0.94253840502036   -2.29852269351947    7.87479804566575
C        -1.91373252912556   -4.03934006663974    8.51989167616868
H        -2.98843894012682   -3.94255225358731    8.44693492380050
C         0.02464939169396   -5.30325343797920    9.16159777111665
H         0.45638402215701   -6.19693292997982    9.58720350461727
C        -1.35094331398152   -5.18564923351931    9.05286499677472
H        -1.99026379333748   -5.98820313933559    9.39089734453779
C         0.84952592022791   -4.27422222766801    8.73429063869253
H         1.92177114971933   -4.36479673330174    8.82692725018022

