85
CSD_code = IVAMID | q = 0 | S = 0 | Stoichiometry = C40H40BP3Pd | MND = 4
Pd        1.53982301704231    5.30373681304439    6.49941805673984
P         1.30181730648526    4.29243776413392    8.76209995550587
P         3.34455697869885    4.26295618205974    5.56944861059947
P        -0.55204347203068    5.94590196201063    5.83465461940416
C         5.64268605351119    5.34192934703856    4.31648680883183
H         6.11102074360990    4.37254073200658    4.42698997143118
C         3.71529648615294    6.79301322413209    4.68139414921329
C         4.59848418244785    3.29844039800855    6.47134131795202
C         5.47397998960223    3.99646268133189    7.30149394218931
H         5.42911881556324    5.07839523367065    7.31886281587701
C         4.33887275911441    5.54243315194346    4.75732947880223
C        -0.26623695452646    7.16410900789881    4.51441337730426
C        -2.39233792371457    3.86225610882730    5.76182643973256
H        -2.47922414104405    4.03830832775026    6.82714265480135
C        -1.56413622437603    4.68378252625507    4.99916632505902
C         2.84992500467573    3.10597613922260    4.24656942640173
C        -3.13648971727803    6.86927956580296    6.60498939937315
H        -3.52473661433485    6.43456988133490    5.69437641097663
C        -1.31240695048435    7.27703928925879    8.11185553211335
H        -0.26342217495255    7.14935481185153    8.35908509840501
C         1.07805519106263    7.45789638887860    4.23671572690349
C         1.32312385895704    8.24003237181385    3.10716057768587
H         2.34273972135227    8.45273686270905    2.82356839381446
C        -2.16707099474233    7.93113930885518    8.97952599532806
H        -1.79157009194935    8.33751019907004    9.90787488090274
C        -1.78588514234318    6.74962205573370    6.91493812763285
C        -1.43086879363054    4.43573766902055    3.63619567736178
H        -0.75964471881070    5.04402896682987    3.04596861188000
C        -0.04816723396539    4.47329606709828   10.00838710987661
H         0.16460381992546    5.32404504137886   10.65347091094802
H        -0.13607676097093    3.57372527963848   10.61599336015060
H        -0.98874129789894    4.66154160335920    9.49269964951858
C         4.47354096338967    7.84298279040958    4.16123770124116
H         4.05519390876797    8.83999117575594    4.14174950572045
C         1.92069217402766    1.34395222742883    2.31614728081840
H         1.56388856131427    0.65555110190951    1.56362317398301
C        -1.30455594814721    7.68703638782753    3.75435592242832
H        -2.32983586057072    7.45245180301979    4.00448314066441
C        -3.99005189672089    7.52375886027935    7.47417204862926
H        -5.03866387658049    7.61487859904684    7.22888517916186
C         6.34980268394309    6.39374301679268    3.76819246126875
H         7.36099694519893    6.24528086905391    3.41660504010191
C         1.04299510672721    1.86387124378895    3.25301978315524
H        -0.00103587718864    1.58584822238556    3.23623766988052
C        -3.50810105923243    8.05937075838123    8.65796342935704
H        -4.18069709432785    8.56973376473575    9.33197418024735
C         5.76228164432183    7.64757709666612    3.69961322847805
H         6.32274120218621    8.48108490158590    3.29909035429477
C         4.62521307529545    1.90800363826578    6.47146184821508
H         3.93563563654916    1.35683628220098    5.84579645320282
C         6.38405705544351    3.31812782031150    8.08786645129412
H         7.06625420836962    3.86697576009731    8.72122381469708
C        -2.14789034665121    3.41296247475217    3.04246615260411
H        -2.04795205439695    3.23594033092055    1.98101454806627
C         0.29511995827152    8.74652473634758    2.33295134800306
H         0.52314242801582    9.34802870313020    1.46390762496961
C         1.50678884102523    2.74728635460029    4.21020463000735
H         0.82941167978722    3.18252791691397    4.94564715241057
C        -1.02560672970949    8.49277230064922    2.66697966338097
H        -1.82961461476499    8.90158598784210    2.07161182497090
C        -2.98870207300477    2.61602424214476    3.80249636676487
H        -3.55020484414071    1.81971452794889    3.33565385018406
C         0.81543027456922    2.65962222607580    8.05334771105625
H        -0.07174699038510    2.79693460610183    7.43023501568262
H         0.60662556428284    1.92992276584730    8.83604656575891
H         1.63102475742485    2.29940783881820    7.42190211089828
C         6.41821313987011    1.93167065576420    8.06852835615889
H         7.12823231913508    1.39947372861626    8.68453914166550
C         3.72695191752075    2.58174766285909    3.30359879492745
H         4.77078297997941    2.85872481509402    3.32205690324562
C         2.65956001899773    3.72335563565112    9.87309889535064
H         3.50495499090760    3.40185021080374    9.26638942873209
H         2.32572535623670    2.89830135644978   10.50091426250263
H         2.98279955888652    4.54961338963951   10.50402406639176
C        -3.10316540426371    2.83796906328473    5.16586000643948
H        -3.74907647909609    2.21092189356754    5.76393827400393
C         3.25852851635344    1.70725622982455    2.34020768139223
H         3.93969716370355    1.30366090211604    1.60455596273527
C         5.53549856083941    1.23076824153057    7.26413513912528
H         5.55495084919708    0.15019943286678    7.25481045465641
B         2.24643509309238    7.06223656761291    5.24670751696364
C         2.22787061740920    7.85280695819728    6.65638295291320
H         1.25392012663088    8.30197403641949    6.86999141183161
H         2.96354906690718    8.65795391477995    6.66050617692136
H         2.51394948336580    7.18706901082783    7.50314792937227

