64
CSD_code = IVAMEZ | q = 0 | S = 0 | Stoichiometry = C31H28I2NPPd | MND = 4
Pd        3.98763431754395    8.33355271015988    4.63205471043618
I         5.55352465553715    9.02298884171901    2.64171644454090
I         2.47023175706869    7.25556342772033    6.48098532729737
P         2.19374131855502    9.47906941449050    3.89651834600292
N         5.52794777990315    7.17569226622138    5.31571028388283
C         1.20221105750475    8.11804266137320    3.20402815433337
C         1.27259186185331    6.05542360119416    1.95593850767863
H         1.82212593521230    5.34240216304664    1.35819670533471
C         1.90569726410818    7.18653400279744    2.43538481643803
H         2.95497223199337    7.36170977013795    2.19831593512694
C         1.02659986467815   10.43283787094770    4.91654214916625
C        -0.06114496769085   11.01478835910617    4.26816570230632
H        -0.19252540906548   10.86841652431399    3.20327286464183
C        -0.06240752797749    5.83330615704634    2.25576673260193
H        -0.55619404100410    4.94458043972028    1.89203775391441
C         1.21075183091892   10.64435903230090    6.27495394505513
H         2.06408630128384   10.21625327491225    6.78173354950746
C         0.30878288858100   11.41621243553744    6.98452853826100
H         0.45829652442285   11.57522014722807    8.04174423644507
C        -0.75714920934479    6.74242413965339    3.03499840502677
H        -1.79214555794682    6.56111367165792    3.28443312067617
C        -0.13106178856975    7.88043553626138    3.51454999679839
H        -0.67449600306385    8.56812832205137    4.14632212324695
C        -0.95986564393718   11.78301397232135    4.98155496261499
H        -1.80431667875669   12.22872181472366    4.47600693345560
C         6.71127936550610    5.12981387610932    5.38634844908801
H         6.82528808104789    4.11950230903996    5.02753581963849
C         7.56570467828844    5.64931577150317    6.34202574658875
H         8.36415054681724    5.04756377880401    6.74842733138108
C         7.38263314234048    6.95333524997896    6.76838179321273
H         8.03015989932316    7.39420108682286    7.50934920258280
C        -0.77704788347932   11.98303545732396    6.34105027449872
H        -1.48085090420666   12.58560190137635    6.89581737349719
C         6.34447543703094    7.70010367290522    6.22977817696442
C         5.68942298680992    5.92513810648086    4.88339630823759
C         2.40994788196290   10.65523869183713    2.51852108157135
C         2.19591357899907   10.27625633943288    1.19850234228685
H         1.87115450906326    9.27026975166670    0.97136828925559
C         2.82364864594583   11.96168925765659    2.80955229445121
C         3.02504174074657   12.41779667523388    4.19772243224166
C         3.93068682588100   11.79859515689237    5.05592796710237
H         4.55513328238847   10.98572490305654    4.69209823437317
C         2.44111988851068   13.95234475005894    5.96152494929081
H         1.85601593690285   14.78954016493280    6.31269455290203
C         2.29481755629249   13.50942483149692    4.66131123325789
H         1.59304520449347   13.99416744882019    3.99752502140342
C         2.79984918701676   12.47128386170374    0.45261525476478
H         2.95974724184906   13.17726593923151   -0.34846527531154
C         3.00366120346670   12.85927775099831    1.76427357905024
H         3.32679962355826   13.86530803090528    1.99062053639214
C         2.39139361625192   11.17943652913492    0.16989610647807
H         2.22557432348808   10.87115992588154   -0.85143247481749
C         4.09171697780498   12.26125069670302    6.35150566104356
H         4.81119476856049   11.79354636372719    7.00858872865434
C         3.33959783495757   13.32830264363255    6.81060214984373
H         3.45902220469617   13.67752450024741    7.82560152593780
C         4.75362508693942    5.43085435421490    3.82704055903124
H         3.72804229947609    5.78519981584340    4.01451738067647
H         4.74720468389154    4.34433745365660    3.79322922187823
H         5.08220211914174    5.80447898454234    2.85143227192184
C         6.10440257470413    9.12533280035337    6.62167429384704
H         6.51376960947941    9.78651690954996    5.84823157037081
H         6.59541183523943    9.35605501782447    7.56413548617128
H         5.02195564697861    9.32001868377716    6.72641430546360

