42
CSD_code = IVANAU | q = 1 | S = 0 | Stoichiometry = C21H17FeO2S(1+) | MND = 8
Fe        6.28773438491563    2.33990510253668    7.75853918190681
S         7.79823363395735    4.07648787206917    8.04114119302290
C        10.93718883733184    2.89034819922284   10.14483377209674
H        11.94354311506956    2.58328661932037    9.91092629772436
C        10.50042691657334    2.93911559087933   11.45664260847300
H        11.17406412511385    2.66300144061963   12.25240525341717
C         9.20973587874775    3.34256131964391   11.76775949314867
H         8.89554133495420    3.37509138562117   12.79937822965966
C         8.30817989220755    3.71256750095579   10.77646385510114
C         9.15500473148883    3.82437161508251    5.59806488374789
C        10.32802054788005    3.49073763833447    4.93094589991946
H        10.35892557246734    3.56944482132280    3.85537312763538
C        11.45500977591333    3.06501348440905    5.61961234735995
H        12.34876196969882    2.81766074410093    5.06889130565522
C        11.45142620476023    2.95737396317996    6.99886173690816
H        12.33256432470884    2.63259092252601    7.52789251621478
C        10.29593585371650    3.28052174622635    7.69887080579558
C        10.06233536066269    3.24979924309685    9.12747543324920
C         9.16834635485317    3.70011476728119    6.98062056043781
C         8.76185102408085    3.64654246419829    9.46622816694266
C         6.90820214552002    4.13404847414949   11.08227733283823
H         6.67216711660831    5.06603621635354   10.57061674557771
H         6.77267126578471    4.27701219034487   12.15001132841381
H         6.20599572088022    3.37004770315985   10.74176340203814
C         7.92250206248260    4.26917725305961    4.88096897294671
H         7.55096989414476    5.20011630237397    5.30703354269661
H         7.14008892210870    3.51344539903629    4.97927192955698
H         8.12453533004442    4.42389197365988    3.82544160530859
C         6.99033980777098    1.33946806039890    9.02372021614244
C         7.34955239534288    1.39846455693793    6.71842492894873
C         4.23092738464301    2.24046132499489    8.59773309198530
H         3.92673943874829    1.89129878351770    9.56981945883378
C         4.49795957429214    3.57000310907502    8.23812012382636
H         4.40918900664097    4.43165629759816    8.87796443562208
C         4.71909067804511    3.61101811252032    6.82498533486064
H         4.82353131956487    4.50823097897239    6.23855835864873
C         4.58664519275420    2.30642370928849    6.32635369760083
H         4.59675429881787    2.01572073658230    5.28965140117738
C         4.32999269284064    1.44109487130479    7.42557991684595
H         4.07319267700392    0.39640631737527    7.35504992655727
O         8.01311954969454    0.72893788165134    6.08521383351456
O         7.43750368715162    0.63500330702011    9.79401374765007

