32
CSD_code = IVAPEC | q = 0 | S = 0 | Stoichiometry = C16H12O3Pd | MND = 4
C         7.48786807457291   10.20526207451021    2.90395197931164
H         8.54387182075547   10.13545095193423    2.69145249844512
C         7.01818625661456   11.04903973685052    3.89674759857763
H         7.71901284804356   11.64261421717446    4.46431667906329
C         5.66587087680611   11.13461307415631    4.16186896810788
H         5.31179901184386   11.79581261972483    4.93773459648181
C         4.77056814724467   10.35884049112047    3.41962378126492
C         5.22897434843595    9.48894852448968    2.40409427869078
Pd        3.80883745582067    8.49710485175777    1.50720712776108
C         5.12818448494204    7.62102256034613    0.36845140531186
C         4.57346380196495    6.70967041560500   -0.55885935978905
C         5.38711287641430    6.00445851664445   -1.45043332628872
H         4.95952946559536    5.30939572241016   -2.15653205657234
C         6.75318433950199    6.20333260770224   -1.42385788638901
H         7.39122605132221    5.66537736538191   -2.10877718557553
C         7.31693680728533    7.09096558272039   -0.52249408681432
H         8.38425474571226    7.25018884815219   -0.49716196014788
C         6.51425363227924    7.79942428954557    0.37338209779867
O         7.20079543938922    8.63942466398965    1.20867962713207
C         6.60298412431352    9.42582941854818    2.15675960997492
C         3.31598376101004   10.37353589922331    3.61463060072665
O         2.57913404390926    9.65771742339926    2.93233332261472
C         2.71102994853386   11.27394065055051    4.65629414965841
H         1.62983042284255   11.15972307387834    4.65259773917309
H         2.96662591115343   12.31029938867539    4.44648646816890
H         3.09849973740257   11.01807716498228    5.64010024319077
C         3.11302874540172    6.57646889705557   -0.50072279116687
O         2.45012234471829    7.22945190758792    0.30864422349551
C         2.41108652222533    5.63266324888192   -1.43787164225961
H         1.34054171769505    5.66270706927210   -1.25034800454205
H         2.77680374915523    4.61894234016913   -1.28899497860382
H         2.60599848709456    5.91899640355995   -2.46920371680099

