84
CSD_code = IVAPUQ | q = 0 | S = 0 | Stoichiometry = C30H46MoO6S | MND = 6
Mo        2.20818280250073   -0.06571452969347    2.57861782298214
O         2.82050490652097    0.57557476648525    4.22320716088909
O         3.86960363953826   -0.86514312603147    2.64338636037201
O         0.52278692746421    0.32662823985973    3.13238992059159
O         1.62325959358491   -1.79208742021198    3.57782848753898
O         2.32655303585016    1.15494267202863    1.49811849659609
C         3.82931527279979   -0.10568816698697    4.77880397751731
C         4.43020349712955   -0.98729931198232    3.84895704617362
C         5.48206116227653   -1.82970559741888    4.21337436186749
C         5.91315521420523   -1.72478480896153    5.53160627633781
H         6.71885565078556   -2.34950573094280    5.88094072876700
C         5.34499482295972   -0.83778278318899    6.43268725577232
H         5.74299383481273   -0.81485723339842    7.43390630913136
C         4.28925457538345    0.00194556770378    6.09258589938452
C         6.04960297715504   -2.80400754695556    3.19416722761311
C         7.16397173548658   -3.67790605765197    3.77455891400862
H         7.52946618448088   -4.35616767679359    3.00604362447094
H         6.79923148417746   -4.27412073430253    4.60759092804753
H         7.99906957682182   -3.06917752150689    4.11205225067055
C         6.61181761388510   -2.00366233394674    2.01169292578770
H         5.83453732489331   -1.38376454799761    1.56967955939585
H         6.99979434054275   -2.67685333791893    1.24923894485080
H         7.41929652088624   -1.35624206613389    2.34737802885601
C         4.91345409556566   -3.71694397576575    2.70689851881027
H         4.11289456656413   -3.12496131996669    2.26260104713198
H         4.50217058742182   -4.28409679417638    3.53978722396672
H         5.28526563408837   -4.41471335490875    1.95858275852798
C         3.62087212921087    0.97685443216781    7.04780129974700
C         3.73050598817350    2.38919768750334    6.45584668088320
H         4.77578923961715    2.67642268467922    6.36035538407982
H         3.22951102952185    3.10802236064989    7.10142192822356
H         3.26967443545555    2.42620183980222    5.47037448160436
C         2.14143224866769    0.59353826176360    7.19219414636049
H         2.04406005691855   -0.40770064578411    7.60758581979562
H         1.64458963782005    0.61213260574228    6.22436488223356
H         1.63458171890122    1.29226798058024    7.85509305124080
C         4.26694619221970    0.97407095020252    8.43553136424825
H         5.31711325542910    1.24952479226819    8.37689366951045
H         4.18081434763700   -0.00263095421201    8.90596100360957
H         3.76175224741800    1.69994118052261    9.06946414257121
C        -0.03370891389100   -0.31991965827668    4.16337646657323
C         0.61149264597374   -1.55247576032694    4.42421712421882
C         0.17702910765405   -2.38789064932136    5.46033041025132
C        -0.90507587855060   -1.92143769666386    6.19965622468462
H        -1.28495869387292   -2.51362153455031    7.01568624699869
C        -1.52351189828630   -0.70692947201647    5.95000159558251
H        -2.34510729575202   -0.41954892346284    6.58484318334970
C        -1.10765415820294    0.13965135144016    4.92948642783705
C         0.89368765780344   -3.69607798979958    5.76025248535472
C         0.28997720676882   -4.43617603897408    6.95715075485227
H        -0.74573950574274   -4.70970585673791    6.76886173114019
H         0.34077731290093   -3.82979873638245    7.85779902813641
H         0.85328272090228   -5.34992942891018    7.13568718256208
C         2.36717958886034   -3.39555996385297    6.06563872111232
H         2.45202978608249   -2.77630356602674    6.95569399390556
H         2.83397207880856   -2.86540557639104    5.23986403021540
H         2.91380813536505   -4.32099618240886    6.23650815252195
C         0.80378424680072   -4.61343005897873    4.53182643382625
H        -0.23651472890946   -4.77905524811664    4.25686638283758
H         1.25964429166123   -5.57662069115094    4.75170841972041
H         1.32610634617172   -4.16898843382064    3.68939818184319
C        -1.70165417434034    1.50772145303176    4.64683160988090
C        -0.59728682343305    2.55898570286669    4.83346643477278
H        -0.98343228529118    3.55073151072032    4.60752218354279
H         0.24554424843852    2.35695220392383    4.17102791301221
H        -0.24103469613277    2.55036822747622    5.86182382328743
C        -2.86465879535549    1.84343362652783    5.58400523377700
H        -3.67624664975020    1.12767425956240    5.47320224751078
H        -3.24940450201502    2.83145094488981    5.34080095831648
H        -2.53957084853604    1.85463214750348    6.62148571370827
C        -2.20976853716314    1.54295786297915    3.19862586573730
H        -2.96734659736415    0.77569287294301    3.04426686797636
H        -1.38814276938674    1.37583670403799    2.50498429074863
H        -2.65049443688194    2.51350135036344    2.98160865657071
S         1.33239963871791   -2.77574583377276    1.45596434309958
O         1.83365314617082   -1.39714320752362    1.07719684727137
C         1.28574514500842   -3.50058616292932   -0.23645308829722
H         2.31331603684206   -3.58596463360542   -0.57277910445730
H         0.74141312801700   -2.84132572226595   -0.90168340269238
H         0.83078551873597   -4.48351777095134   -0.20097985075175
C        -0.47204400304623   -2.51531221542104    1.57046395737978
H        -0.74284456535428   -2.34512056963755    2.61066670200989
H        -0.99836373349789   -3.38436657587208    1.19179850564816
H        -0.69390360170307   -1.62988450522897    0.97643020425532

