49
CSD_code = IVAXEJ | q = 1 | S = 0 | Stoichiometry = C25H16CoN4O3(1+) | MND = 6
Co        2.22562141970352    5.19191020924527    2.11212479809952
C         1.56472285031885    6.07817841905624    4.80781093649881
H         2.55430700335687    6.51330493189571    4.84913918478521
C         0.63393262596090    6.30580733069520    5.82604490510325
H         0.91933349588854    6.91810578635444    6.66624667599144
C        -0.62930419481853    5.76744050118241    5.73930250867937
H        -1.36665925423090    5.94588933880450    6.50707130480947
C        -0.95739229738261    4.98371669060995    4.61946001716986
C        -2.22807526698435    4.37495374130587    4.39692744511535
H        -2.99488407346626    4.51274121704393    5.14363802225706
C        -2.47579095823454    3.64882956375377    3.27750230173878
H        -3.44321829889353    3.19797413307015    3.11813366492921
C        -1.47811285602219    3.46591331678418    2.27457001354423
C        -1.66824388457686    2.74326290731132    1.08535437091415
H        -2.61992802404105    2.27677468216831    0.88183559147019
C        -0.62332400149696    2.65052570075601    0.19455859710864
H        -0.73064055234082    2.10405748677692   -0.72864432870810
C         0.59332073882887    3.27575523858136    0.47759028310718
H         1.41316505732135    3.20375706416840   -0.22349263345546
C        -0.21354027234279    4.05543279506592    2.46954517658350
C         0.04447480864643    4.81082490863110    3.64607474343102
N         1.27795657023705    5.34854297880826    3.74508929841616
N         0.80421826969089    3.96565947497186    1.58519071887436
C         3.63521638240933    3.19221274196020    3.85020548598651
H         2.82222525818608    3.26385782521388    4.55920525600893
C         4.76925633051777    2.43888285088760    4.16297223154094
H         4.82127573978560    1.93948135402762    5.11711894633886
C         5.80480260120308    2.34713547076905    3.26117541040113
H         6.69374951800352    1.77800941667558    3.48609590428625
C         5.68957078634482    3.01689480457782    2.03204522285924
C         6.68768132720325    3.01350268830380    1.01291315394567
H         7.59240238051050    2.45296758090362    1.19147621561692
C         6.51765010589540    3.69960568990161   -0.14556874472671
H         7.28444728466912    3.69499268412889   -0.90490305826952
C         5.33186615783091    4.45266394388755   -0.39370732941373
C         5.09027718200251    5.20818077699341   -1.55420428912237
H         5.83268158969065    5.24669899088210   -2.33671481622226
C         3.90542531341924    5.89940752319098   -1.66197492639732
H         3.68851837615639    6.49579426725951   -2.53351226117947
C         2.96805854344153    5.85029963489075   -0.62570901655155
H         2.04190177634403    6.40631158694448   -0.68420566715516
C         4.33008373860213    4.46387638042768    0.59498543859621
C         4.50607994405538    3.74838554598920    1.81087983332199
N         3.49622409251465    3.83648430037109    2.70444878393057
N         3.17417711443066    5.14906010708432    0.47420291036574
C         2.35924176379553    7.47279774449466    2.05558473484380
O         1.36765315737968    6.71879824125881    1.60187888117261
O         3.25803653135351    6.63117286197633    2.54660873499081
O         2.42825809913300    8.66546656995828    2.02802936836995

