60
CSD_code = IVAZEM | q = 1 | S = 0 | Stoichiometry = C29H23AuBF4NP(1+) | MND = 4
Au        4.42171362445618    6.99251305472962   11.63327279803926
B         5.99808026259665    9.03715638566317   13.30035818178171
N         3.39310972804221    8.56707818944703   10.71197220174875
P         5.45763800185884    5.24743665432605   12.72206033040588
F         6.19120030771316    8.30106741298645   11.98287057061465
F         5.60641003505644   10.28435538354521   12.98866384029920
F         4.93845245397136    8.28752622426936   13.83046697019746
F         7.11909296622835    8.93357112593235   14.01660695565840
C         2.74868295724247    6.02438465038747   11.15919304392991
C         2.50771581684746    4.68238883079443   11.32553335390236
H         3.26643271201124    4.02480066689666   11.72330755118712
C         1.27376206916591    4.14713429123648   10.97347612290445
H         1.09762561467309    3.09157302342821   11.10761876515846
C         0.28798974633962    4.96683861160705   10.45528113027119
H        -0.67188336290310    4.55517578811497   10.18547869194831
C         0.53378496589936    6.31436936832042   10.27324389853157
H        -0.23501375416489    6.94430329459534    9.85547068979887
C         1.76896079403677    6.86550408416702   10.61819450214782
C         2.11508703230943    8.26535704621983   10.41497647427955
C         1.25786870590889    9.25254061793351    9.93972166633279
H         0.23177226938410    9.01658250362572    9.71103898833296
C         1.73160434074646   10.54383506184099    9.77503797457813
H         1.07394949754550   11.32149453407427    9.41816956619473
C         3.05731975855174   10.82204994883560   10.07205156193081
H         3.46804476495366   11.81087987431154    9.95453001854606
C         3.85940085803751    9.79645938447880   10.54160105597838
H         4.89312068198980    9.96814770641252   10.79607550412746
C         6.06346899330131    3.99278803100066   11.57048911393224
C         5.68398614433276    3.98372895143416   10.23258406462003
H         5.00572939010200    4.74057278094511    9.85891644061064
C         6.18593252059431    3.01146286184376    9.38516968235591
H         5.89514566741235    3.00489408970031    8.34608959767351
C         7.06410283763403    2.05428841275882    9.86806464952141
H         7.45468066213484    1.29939941145308    9.20366344580407
C         7.45273806143705    2.07044595667454   11.19938994598891
H         8.14568685729311    1.33138946589676   11.57088284995759
C         6.96034476872016    3.03932468198530   12.05339575683919
H         7.27391284205492    3.07232072190309   13.08863116284308
C         4.37568415297550    4.48157218624496   13.94925961885727
C         4.27784373098728    3.09985910138078   14.08995122727386
H         4.83630663937651    2.44225388924211   13.43826625470906
C         3.45777047770250    2.57458400699871   15.07298495470644
H         3.38262316846724    1.50429876908179   15.18899696259257
C         2.73725709287651    3.41681783931392   15.90500140513065
H         2.10204448563787    2.99982001217892   16.67099355550360
C         2.82809047245705    4.79286126897042   15.75588198587107
H         2.26543554280382    5.44666906089405   16.40413679854643
C         3.64178755395416    5.33153883421204   14.77645317161375
H         3.72057998241222    6.40263897323801   14.65205486878932
C         6.92993001183978    5.80486980618240   13.59157236846201
C         6.95702171558217    5.96117119786582   14.97471299525877
H         6.08437294593643    5.73259480880053   15.56916402188494
C         8.11353146894925    6.42000662843373   15.57768314091451
H         8.14011339033046    6.54901371322265   16.64850836001107
C         9.22466541381121    6.73305279340513   14.81199870188540
H        10.11597233152844    7.10973340530597   15.28880411463772
C         9.19283676917730    6.58144519764307   13.43325239117454
H        10.05620373365740    6.83783009403863   12.83911133758303
C         8.04814374189045    6.12105947516756   12.81659501078611
H         8.00373358412014    6.01596985442365   11.73996763484938

