61
CSD_code = IVEDOD | q = 0 | S = 0 | Stoichiometry = C22H32Br2N4Zn | MND = 4
N         4.80532089412265    9.56300392420052    4.31094898722821
C         4.65364507900413    8.40773755394047    4.95198731151010
H         3.93610003376804    7.71547622305899    4.53215572593328
C         5.35011703808624    8.07985413321461    6.10489747740033
C         6.26142303029796    9.00901368850771    6.59819405127101
H         6.82217682592693    8.77870479290554    7.49092966366314
C         6.43385638563753   10.20320048644531    5.92187324722563
H         7.13200950338418   10.94764407759832    6.26990602392551
C         5.68003808450853   10.44382834605621    4.78648665851140
H         5.76992467938009   11.37540564375502    4.24639875185619
C         5.06863482136645    6.80047011270168    6.84271127455256
H         4.54304789286947    6.09920672176554    6.16465976012902
N         6.30477993815334    6.20908014123993    7.34429536379712
C         6.03293370659900    5.01975184484246    8.13650813084506
H         6.99384988399934    4.62343529929108    8.47482581079361
H         5.54051792572879    4.24117279159905    7.52445172929931
C         5.15558745485623    5.34282569665068    9.33856453421213
H         5.66827798413858    6.06953227320381    9.97059560140827
H         4.99090988281244    4.43494758489258    9.92048600275588
C         3.83322742929256    5.92562186174790    8.85932522870905
H         3.20412722624937    6.20275467841077    9.70609920450768
H         3.29535424832891    5.18327539841638    8.26567142760513
C         4.12817368646553    7.15189363663587    8.00744111103291
H         3.20637159903867    7.57089361101734    7.60004757113778
H         4.60903559768444    7.91316831768105    8.62463714858147
C         7.21314952221274    5.88553901999097    6.26238251843843
H         6.79710600399190    5.13183408066878    5.57464091829065
H         8.13781158658237    5.49489450338656    6.68449848874215
H         7.44635950917834    6.78180017660230    5.68997305118385
N         4.93201073642873    9.71514470014120    1.01553350486867
C         4.94603582768245    8.53976430552336    0.39313066726491
H         4.27637713596974    7.78329882551686    0.77982012297461
C         5.74929682098631    8.26933926803315   -0.70357900920248
C         6.58308539935372    9.28474143330284   -1.16307184847922
H         7.20643994283213    9.10873699945720   -2.02624852674528
C         6.57198105731968   10.50634902729626   -0.51466120732655
H         7.19773312292133   11.32053007662790   -0.84361577974178
C         5.73147836788758   10.67969231684920    0.57128607022522
H         5.68521472566581   11.62502673317836    1.09308293090884
C         5.75764000123369    6.91023866851073   -1.34718569452007
H         4.86620100336835    6.34549269567382   -1.00910911792144
N         5.77420212685997    7.03264605956036   -2.80116463618390
C         5.85664517981574    5.72574472477388   -3.43388228406728
H         5.85419258746695    5.88316670448735   -4.51528980903612
H         4.97727363412283    5.10585428908627   -3.17869368721039
C         7.12588624659288    4.99145871362317   -3.02252417787887
H         7.99354708349340    5.57913027008925   -3.32643091774104
H         7.16735369052595    4.02700584098397   -3.53033790792777
C         7.13805699239178    4.80734004193741   -1.51117190720973
H         8.05939950350254    4.31955785483557   -1.18911058742086
H         6.29746077503537    4.17826072447394   -1.20962060510361
C         7.01733613082243    6.17701085718205   -0.85791558606235
H         6.97210090433936    6.08539944092873    0.22928528522609
H         7.89159604925415    6.77762567887686   -1.11606242907160
C         4.60736782821304    7.74456967224168   -3.28616315556787
H         4.68452693328261    7.84921152816396   -4.36720015718079
H         4.56662591497011    8.73897169388148   -2.84586468432032
H         3.66776040415181    7.22108252341512   -3.05086878557822
Zn        3.52613366371101   10.09009519065146    2.63205724876627
Br        2.07545002861056    8.22828070908503    2.49508623681689
Br        3.49792272752325   12.44816581119469    2.75079765990126

