67
CSD_code = IVEFIZ | q = 0 | S = 0 | Stoichiometry = C28H30N2NiO6 | MND = 4
Ni       -0.00022329908967   -0.00072346345202    0.00026731700986
O        -0.54018403211581   -3.19675209662466   -2.90774073672634
O        -0.16853412038909   -1.03119049251743   -1.50035629404268
O         4.04158898555012    2.12224842887561   -0.49642555595144
N         1.10125774234704    1.18662805664266   -0.89127659408072
C         0.33984584239472   -2.27975573235159   -3.41654267056289
C         1.02716263838191   -2.40726884146506   -4.60264023428967
H         0.89980897714759   -3.28078933605048   -5.22273855507998
C         1.90444412535967   -1.40719152834782   -5.01668668549614
H         2.43862888674441   -1.52395580198947   -5.94697723700546
C         2.09113556202807   -0.28447947600046   -4.24237668604202
H         2.77387996846912    0.48877398917941   -4.56491635942456
C         1.41026103230825   -0.13151922488297   -3.03951886230437
C         0.51593864496939   -1.11792559248822   -2.59861319307346
C         1.60752660418684    1.11637301496754   -2.23405130741677
H         2.69044594780409    1.32314409383321   -2.20900779889585
H         1.15720575927978    1.94738198003020   -2.81224643112643
C         1.61482674599917    2.39657463866761   -0.26288362767663
H         1.69982728675909    3.20010115663316   -1.00734701012476
H         0.95575566021644    2.70705437923785    0.55051103461925
C         2.96169389894093    2.11487464665327    0.32620596324322
C         3.33925673588486    1.76243102897776    1.58511701368159
H         2.69169253517822    1.67263681439329    2.43086164888384
C         4.74038262867298    1.55272055752971    1.53474297737770
H         5.37819740261552    1.26709243316279    2.34662394487915
C         5.12114658517717    1.78126734206452    0.24716380325690
C         6.44753958822642    1.72147069075194   -0.42226817499018
H         6.69173978795710    2.68244447432570   -0.87324536168844
H         6.44283111342512    0.97124155182163   -1.21236712770805
H         7.21166470969641    1.46519989826086    0.30489103673701
C        -0.79880154591106   -4.35744068277815   -3.65266403881041
H        -1.53209450136062   -4.91956367068897   -3.07603484539796
H        -1.21774983776559   -4.12057164309540   -4.63653854593330
H         0.10417117437386   -4.96427919935128   -3.78190175529067
O         0.54096376069669    3.19458116132671    2.90898218774784
O         0.16823229625843    1.02967217629812    1.50094265400827
O        -4.04289240506466   -2.11960847666998    0.49507429723338
N        -1.10201425684913   -1.18788212326181    0.89168699513835
C        -0.33910286876203    2.27762882151777    3.41778286393812
C        -1.02593145221308    2.40488854482963    4.60418484893369
H        -0.89809943378097    3.27814342112338    5.22456321384289
C        -1.90337595025380    1.40491851105955    5.01816227742161
H        -2.43716932499083    1.52147072560934    5.94870460489427
C        -2.09071777624694    0.28258827723617    4.24346227563148
H        -2.77359964476650   -0.49057398909229    4.56592971363567
C        -1.41033465890279    0.12988763815508    3.04028887615719
C        -0.51583625309181    1.11616521830091    2.59946490905788
C        -1.60855319364614   -1.11754056406685    2.23434024130702
H        -2.69166828557011   -1.32326023159863    2.20894142693889
H        -1.15918268648849   -1.94917517955356    2.81235359329263
C        -1.61639489467504   -2.39726273342805    0.26286133483214
H        -1.70269139971882   -3.20076894164986    1.00718722437235
H        -0.95713087619602   -2.70834968992689   -0.55014638884064
C        -2.96258518151518   -2.11401074538682   -0.32703179274249
C        -3.33904135925606   -1.76145040478663   -1.58624315487402
H        -2.69095708661703   -1.67284896891537   -2.43171308273454
C        -4.73987843144491   -1.54967355700204   -1.53660710895146
H        -5.37689048539304   -1.26337229519778   -2.34888495219286
C        -5.12159661703880   -1.77730374627517   -0.24914071337786
C        -6.44822433955969   -1.71538751638766    0.41963475938400
H        -6.69411243668130   -2.67594477700006    0.87062807013714
H        -6.44273536262527   -0.96504167160421    1.20964713026798
H        -7.21160148684250   -1.45802952066324   -0.30795695909170
C         0.80026399801719    4.35487576940201    3.65427980002046
H         1.53352841076930    4.91697757797429    3.07759415752411
H         1.21950950671936    4.11746251724807    4.63789519654852
H        -0.10244905773045    4.96197237845990    3.78411244999167

