47
CSD_code = IVEGOH | q = 0 | S = 0 | Stoichiometry = C19H23I2N2Rh | MND = 8
Rh        9.80501780779134    0.02074851878702   12.33417365490067
I        11.67510392545260    1.75136661322474   13.15118346668507
I        11.53674436407918   -1.77609525934668   11.37351922952091
N         9.79740107614726    0.89588045977023   10.42458899538857
N         9.96803819243083    2.25953952086479    8.71489209974106
C        10.24649880093555    3.41932852348841    7.96841074103734
C        10.02834408659078    4.67350683268807    8.52729007074046
H         9.63614256074989    4.75916958538158    9.52890063214879
C         8.06974579567973   -1.29787353417759   12.55532459235799
C         9.51264654999139    1.06376643619548    8.23235270307897
H         9.28574503162078    0.90549096056507    7.19908649522691
C         9.00937148137857   -0.18947915040785   14.36267162568706
C        10.74148813480386    3.30824408255838    6.67431566315497
H        10.93401388699061    2.33438696533925    6.25119076731185
C         9.40464869300158    0.22912340928210    9.30053416386296
H         9.10259539423085   -0.80020951329371    9.32352735194433
C        11.01099161028359    4.45119211082605    5.94391709876635
H        11.39849777062009    4.36218765091818    4.94067082075008
C        10.30661282211722    5.80956058424131    7.78963817771814
H        10.13822971266573    6.78186285548553    8.22635994439777
C        10.12361789333927    2.11141615211896   10.04431109858160
H        10.51208924726187    2.87710839156873   10.68615928926044
C         9.63521036938537    0.04784101263989   15.69868222159243
H         9.83030055610113    1.10419164443924   15.86475175484941
H        10.57519515156902   -0.49249684492212   15.79575570147218
H         8.95612527924604   -0.30755686157280   16.47676040320853
C         8.92386061468456   -1.44855979823206   13.70859383425770
C         7.59804607074888    0.05324333030014   12.53794338592293
C        10.79455677747398    5.70170300165215    6.49803825925986
H        11.00876438099741    6.59082059631542    5.92555337634048
C         7.57448968819986   -2.42778497901337   11.71039471085369
H         8.38798248607534   -3.09654279659384   11.43203255304240
H         7.09564522732825   -2.06700039510417   10.80228052023438
H         6.84185765232226   -3.00708105963270   12.27601784151358
C         9.44909852196109   -2.74000102651976   14.24472263692399
H         8.74785812823559   -3.12498091352037   14.98850044914740
H        10.41517107205854   -2.60353575787527   14.72709977256201
H         9.56156284975559   -3.48205579677962   13.45823806284022
C         6.56019266225157    0.60201223837629   11.61066242627565
H         6.67627298260974    1.67573192595523   11.47170228507380
H         5.57111660682322    0.42040042330471   12.03627223748768
H         6.60095450097867    0.12300800022064   10.63355148748063
C         8.19626615119512    0.75356973050788   13.62955087168854
C         7.86178791751906    2.13405792155946   14.09559103024249
H         7.13895360239726    2.07466255308302   14.91172220780978
H         7.42721674156285    2.72993996112742   13.29563825128087
H         8.74662917033204    2.64919169409204   14.46592503640225

