52
CSD_code = IVEGIB | q = 0 | S = 0 | Stoichiometry = C21H26IN2ORh | MND = 8
I         9.95069813308363    2.76100224319900   13.40741908198538
Rh        9.95757407523312    4.78231561681163   11.68781932574123
N        12.96993973862214    5.05647828979945   12.44523900479346
O        13.40969600965726    6.95647625092438   13.67825306470426
N        12.51989364192810    4.04853467408251   10.59538356660404
C         7.84081229270927    5.42363488765611   11.95323423610757
C        11.95133868830558    4.69990757092542   11.63407239751271
C         8.59462416483961    6.15571785448634   12.96708415616700
C        11.63390446192266    3.40193266803802    9.72599626072556
C         9.41583157930431    6.71589530995668   10.89206344711469
C         9.52462275317142    6.97495694605896   12.31717142344346
C         8.27059951123271    5.86778482895209   10.68356401136650
C        10.29755224518188    3.54511045279785   10.12482319045794
C        11.02501911608977    1.98500216991694    7.91484156713129
H        11.29419795509219    1.38861377389710    7.05613486722081
C        10.35555741850551    8.07361321307409   12.90647343390797
H         9.96531924503497    9.03515746525082   12.56647184909814
H        11.39875680313751    8.00997823875426   12.60024707309764
H        10.31134671120421    8.05826660889924   13.99341595757091
C         9.70245937186451    2.06883932216242    8.31666808732084
H         8.94224666638296    1.52634505518302    7.77340024053632
C        12.83952871005283    5.67102906956479   13.72934033468653
H        11.76663679042459    5.71608893044071   13.98376821936389
H        13.35632468591201    5.05453271153265   14.48555513935932
C        12.00952534667764    2.64307139008135    8.63109162094424
H        13.04847377204663    2.55655762258007    8.34920552937789
C         9.33983814121352    2.83451025134467    9.41551180239205
H         8.30275975723061    2.85187012792580    9.72372347937327
C        14.16355918983437    4.65146860842160   11.89578427593941
H        15.09958868672362    4.85363668424283   12.37300494489498
C        10.06681851556066    7.55141629967127    9.83211664188595
H        10.13111668943904    7.01002908187920    8.89009867186018
H        11.06956131606172    7.85239714416713   10.12986813020970
H         9.47548565558118    8.45506309486786    9.66570412374510
C         6.60664719167898    4.63074571410128   12.26210505154508
H         5.78575788130384    5.30926229107242   12.50503970521901
H         6.76625761270331    3.97394787533732   13.11521109960306
H         6.30657311627732    4.01846668461576   11.41442463644347
C         7.60258485105772    5.65334802772635    9.36085455774165
H         6.84800403623739    4.87314965470278    9.41922263482414
H         8.31729644548852    5.38622743505420    8.58381608233537
H         7.10952729381692    6.58120481710875    9.06302807259827
C        13.88035997238072    4.01740426738528   10.73466812965779
H        14.53084857531338    3.55084580753246   10.02465415968688
C         8.24530278567059    6.13784119583520   14.42215121293922
H         9.00321456726418    6.63772763478811   15.02184509821338
H         8.13803079709141    5.11855145080030   14.78980283652846
H         7.29292016885260    6.65024513758543   14.57240279914317
C        13.49330638999706    7.56910767897062   14.94067991904495
H        12.50203055804614    7.68733529376606   15.39211654868197
H        13.93901798542096    8.54759383725044   14.77804307731962
H        14.12301193201336    6.98526073886099   15.62218522185593

