74
CSD_code = IVEHOG | q = 0 | S = 0 | Stoichiometry = C29H31ClN3O9Re | MND = 6
Re        1.73526871037952   -2.72031489944269    4.69529029548379
Cl        0.87670674333791   -1.82966328423838    6.69236298162321
O         3.42247341883120   -4.72731083904695    6.33039155109819
O        -0.61699496086974   -4.71878026249257    4.55140454271828
O         2.93280391439644   -3.53298497626173    1.96431240553044
O         4.23843134483788   -0.85785023982922   -1.65432612722767
O         3.35703731207178   -2.93111584040104   -3.69799166073332
O         2.13476849813336   -2.20736599225441   -6.49487491013850
O         2.97445789949804    0.68399741160126   -6.08935317851404
O         4.14024571297999    2.92190028810077   -4.64718548717200
O         4.65072743357907    1.66189439020384   -2.04138792489799
N         2.57007660417890   -0.07926016156155    2.81806937633704
N         3.19411627056289   -1.07151061992319    4.87307970383827
N         0.63013924410588   -1.05740460414462    3.77141493301452
C         3.46722997786263   -0.22482094140766    3.87180108228773
C         4.64857655518977    0.53118365275535    3.87653202917199
H         4.89363938466263    1.15280774481392    3.03240941457791
C         5.48518933161834    0.48191436218557    4.96942390886774
H         6.39397973800291    1.06413826145013    4.98152039041148
C         5.12648954166614   -0.30629419883397    6.05439672236285
H         5.72799934147311   -0.34763688884253    6.94691839162979
C         3.98600412258987   -1.07176775610863    5.94745393995079
H         3.68258583814764   -1.71912502425206    6.76006341639422
C         1.18391935158500   -0.17008930614638    2.93560857540943
C         0.38609087493856    0.69014317286227    2.16788612900668
H         0.84604539094942    1.36163755738815    1.46277111226486
C        -0.98129714663121    0.68192200086188    2.33230431626584
H        -1.60135682822851    1.34528064372170    1.74891472528735
C        -1.53624006081950   -0.17444883436974    3.27315855671528
H        -2.59654932650287   -0.19649381864208    3.46172275791380
C        -0.69229773864855   -1.02558126067027    3.95268365527813
H        -1.08897673019031   -1.71754755527308    4.68417455679558
C         2.79522417055643   -4.01826294679365    5.68452885273122
C         0.28350235994905   -4.01021770765086    4.57921482238875
C         2.48208715942215   -3.24075946660420    2.98717940047889
C         3.08097049424410    0.44484034413604    1.58289950358533
C         3.38930705930350   -0.47429982636769    0.58436892494475
H         3.22444670801237   -1.52059280399608    0.77784209921304
C         3.90154641656140   -0.04774343477488   -0.62865609680947
C         4.11546339301383    1.33823882680086   -0.84323768881054
C         3.78894441375757    2.23714813496202    0.15885525798617
H         3.93924452824531    3.29445426313229    0.01303555995278
C         3.26960986051800    1.79754746578892    1.37015664129640
H         3.02132622394017    2.51406922333936    2.13936553397758
C         4.04750825168221   -2.25151878912804   -1.51461211474162
H         2.99373313103697   -2.48423747514633   -1.32144039894334
H         4.66217665075688   -2.63793110274164   -0.69159565566172
C         4.46064418577641   -2.91051552365495   -2.82663136353220
H         5.28723054608766   -2.33463212498569   -3.26655258691682
H         4.80719172691098   -3.93847586122297   -2.63709100617644
C         3.68576371341205   -3.38575551830295   -4.99289689242004
H         4.12106625557052   -4.39535914618842   -4.92931684493090
H         4.42209220596971   -2.71469290979096   -5.45794553527434
C         2.42579255110316   -3.42780048163932   -5.86631975478355
H         2.58109547438303   -4.13829226116459   -6.68163756297854
H         1.58097787582509   -3.76153545855357   -5.24790446215680
C         1.62386365212280   -1.21675308524267   -5.62326080687622
H         2.21119734812941   -1.16959372429401   -4.70117631090838
H         0.57902770858207   -1.45615735615801   -5.37191060210217
C         1.69762344716044    0.13910286190187   -6.31527179916274
H         1.51508106353586    0.00845041358219   -7.39201540163362
H         0.92598998937451    0.80906931419588   -5.90483561159759
C         3.14062219395137    1.98546014927725   -6.58802887087371
H         2.29149234299666    2.62149506285881   -6.29835335870509
H         3.21636178859030    1.97663185920302   -7.68701307261955
C         4.41537172092743    2.55956461636502   -5.97957344721076
H         5.19482299760415    1.78734003035502   -6.01410934267245
H         4.75320173755752    3.43537960173383   -6.55551196176728
C         5.27337194331577    3.07591574920672   -3.83291229659146
H         5.76975407705838    4.03884945668608   -4.03529090489849
H         5.99153560711888    2.26346330392831   -4.00885316885702
C         4.82408451141782    3.02059830606680   -2.37548656310313
H         5.58544356274434    3.48063075712457   -1.72989755866049
H         3.87941918779893    3.56912508256593   -2.28045773597242

