46
CSD_code = IVEHUM | q = 0 | S = 0 | Stoichiometry = C23H15ClN3O3Re | MND = 6
Re        9.80295326403292   15.55815973749007    9.43208079089060
Cl       11.54720870793604   16.94354891715226   10.23534179688600
O         7.85049350782314   13.62282742789401    8.01782722297094
O         7.76425668855583   17.84529077240955    9.82524235333463
O         9.29988531203246   14.50009310376655   12.29017521739643
N        10.88185659293665   14.13010087167746    6.83907158208531
N        11.48411543145677   14.17133725187816    9.10035832270219
N        10.50642007309145   16.34538988394691    7.50541996301911
C         9.05130163495210   11.37112635326171    4.22738447716986
C         9.04311880105536   12.75524929520478    3.91826556477186
C         9.66579710465132   13.66465594813987    4.79371720557876
H         9.61219728432449   14.71553450765574    4.55125152345066
C        10.29928878177108   13.23225422616975    5.93511244553881
C        10.25985180834549   11.85800828423111    6.26332643720085
H        10.68414645258142   11.52158839726628    7.19704167927860
C         9.65934817728353   10.96064731339963    5.43122202998628
H         9.63276462088688    9.91432306974956    5.69816821523551
C         8.43573112071157   10.46481868520718    3.34187540883729
H         8.44596246371795    9.41232904366671    3.58637810818914
C         7.83595224567258   10.90918338172115    2.19659849817952
H         7.36541247007277   10.21110564145982    1.52023881693811
C         7.82294648041463   12.27914713239927    1.89116362006695
H         7.34210766732687   12.61381973847523    0.98377754247525
C         8.41038662660666   13.18243947407099    2.73173327830544
H         8.40030781396937   14.23783148489087    2.49900202654515
C        11.72897568989628   13.69736720204658    7.87734390358736
C        12.81022534862925   12.86185935687870    7.60280646443014
H        12.97224524402310   12.51549777976239    6.59367574880403
C        13.65764904011750   12.50780419332113    8.63380138657962
H        14.50455567674382   11.86510173068304    8.44847282837637
C        13.40866404057235   13.01476561666241    9.90183069831042
H        14.05002621849648   12.77628984425655   10.73422416577603
C        12.31911197597443   13.84290533180429   10.08568016202936
H        12.10615956096987   14.26886502480310   11.05681384070996
C        10.97247343941003   15.51383133870959    6.57264711257498
C        11.58959580191627   15.96655884643613    5.40898864373895
H        11.98373319310307   15.25295477278837    4.70204634706803
C        11.70023867643939   17.32745927214703    5.19823341315712
H        12.17881112979559   17.70541243446048    4.30776010778799
C        11.20291030791592   18.19033683929453    6.16429909487000
H        11.27063336757716   19.25936399261863    6.04663745046648
C        10.62737683817364   17.65697227210810    7.30088452409505
H        10.25551761252621   18.30216219877071    8.08533627147600
C         8.55868636276712   14.34835283081289    8.55987877747665
C         8.47996822005442   16.96281773527251    9.67921222565962
C         9.43623112269106   14.87771144317820   11.21725270598856

