39
CSD_code = IVEJEY | q = 0 | S = 0 | Stoichiometry = C18H12ClN4O3Re | MND = 6
Re       -5.44410172458573    2.49534790477498   -2.56355948330030
Cl       -3.09123180702139    2.35046291694075   -2.36330086757270
O        -5.66901118807781    3.49618716051588    0.35041772931194
O        -8.42197335143956    2.89341718643070   -3.29112443720655
O        -5.73005236616164   -0.44405313371722   -1.65777862473260
N        -6.02264996157032    3.91176063134207   -5.32443200442151
N        -4.92559325813861    4.48948747526964   -3.33624703748490
N        -4.97914585734019    1.92852427291250   -4.64016990315169
C        -9.12715670734943    3.73185341760828   -7.29272286012962
H        -9.69383437940313    3.03638664050111   -7.89131017071603
C        -5.26035326162441    4.83886500735828   -4.57856755010742
C        -4.83484698173456    6.02830908390663   -5.16341146995408
H        -5.11205225874768    6.25284288060815   -6.18175432990168
C        -4.04975320908293    6.89097461575036   -4.42248050026652
H        -3.70294700275037    7.81839876643670   -4.85128071870902
C        -3.70446162188300    6.52718836249268   -3.12894711001414
H        -3.08772609738909    7.16344032237204   -2.51570812607455
C        -4.15585599820493    5.31971442592693   -2.63285746484525
H        -3.88541158883231    4.99656201605548   -1.63670857404144
C        -5.33290223590443    2.72453598641300   -5.65019509039642
C        -4.99487064572940    2.45066365636703   -6.97323516787911
H        -5.29008089559780    3.13629642707343   -7.75271048805995
C        -4.27027986172413    1.30804953306013   -7.25283141547660
H        -3.99133923891052    1.07311814519011   -8.26851519899131
C        -3.89331560287886    0.48763686426785   -6.19907679957211
H        -3.31740521839683   -0.40748422966444   -6.36692548265495
C        -4.26251563576990    0.83914195850356   -4.91526277864546
H        -3.96883702781016    0.23166726357793   -4.06985615397683
C        -7.92669102926752    3.34760480957659   -6.72559724735878
H        -7.55904937780138    2.34136294629746   -6.86328596416584
C        -7.21532225655577    4.26640525899188   -5.95214729373680
C        -7.81122720463257    5.51543490280630   -5.74392486615653
H        -7.35991745838427    6.25058273755937   -5.09128146463005
N        -8.94972547508146    5.87770741851706   -6.29403983278427
C        -9.59115166222203    5.01864950738025   -7.06590946042063
H       -10.51597775841368    5.37325003804858   -7.49791664642013
C        -5.63679644027546    3.11193528386484   -0.72771753998587
C        -7.32237701811166    2.73911239795837   -2.99235535905145
C        -5.67435933520028    0.65375914075623   -1.97967224633034

