48
CSD_code = IVEJIC | q = 0 | S = 0 | Stoichiometry = C21H18ClN4O3Re | MND = 6
Re        8.95869187272656    3.28580815132835   21.12453546351585
Cl        9.62710254163136    1.40556225831805   19.88222173657558
O        11.89795723302425    3.80629958302716   21.92296063342263
O         7.86087509980731    5.85711364515261   22.44174665754815
O         8.52929921397420    1.51125778146556   23.61761208505678
N         9.10409268685174    4.31607198710315   19.18265781495803
N         6.98344905997965    2.85510948769734   20.25099495601261
N         6.82020012552203    4.95039270343170   19.15493925148331
N         3.37789006599538    9.31194423842231   18.34957141355558
C         8.11869553320646    5.06343541479495   18.66761824037826
C         8.37550345000486    5.96426798215801   17.62303092400791
H         7.59001260147910    6.60480592312748   17.25936948733700
C         9.62967297163081    6.01559729504400   17.05718445175006
H         9.83169067466132    6.70314568953262   16.24992495367158
C        10.61258890128076    5.15577203731158   17.52768892117215
H        11.59892569900461    5.13334731742811   17.09539660198899
C        10.30236104592367    4.34198600409320   18.59513558404645
H        11.04636674289601    3.67085136955881   19.00436390701549
C         6.24179517207314    3.77085922645544   19.61378723766858
C         4.87400222674393    3.55292015999192   19.38934912935923
H         4.27394419995494    4.32204307261368   18.93346980347759
C         4.30664464171181    2.34877368717344   19.74120603126499
H         3.25588613199660    2.17386609509154   19.56654401057526
C         5.11274827609953    1.36587836112370   20.29877495389257
H         4.72411797193515    0.39545687630377   20.55850782884817
C         6.43262122284960    1.67506044194187   20.54409981336749
H         7.08991285365603    0.94341675953998   20.99587131147097
C         5.93623215584522    6.05720901423035   18.91691017892395
C         5.23249716187075    6.20254951427739   17.72612179288334
H         5.34784562787603    5.46822604435278   16.94042370572121
C         4.38883833375469    7.27526668992254   17.53600041625840
H         3.86750917287743    7.35349989205292   16.59685338471048
C         4.21378336337405    8.24951150523855   18.53461673822471
C         4.93577127629733    8.08381727909850   19.72837075706885
H         4.83774333148654    8.79512412546010   20.53013197867805
C         5.77914718564609    7.00913395857869   19.91303173685271
H         6.32042355017627    6.90357002295021   20.84026404032313
C         2.57422766518837    9.41388836775383   17.15666806556442
H         1.96473260061865    8.51657041936310   17.01572313030036
H         3.19540427984315    9.55870287684503   16.26644564195048
H         1.90294982654500   10.26439630043634   17.24271745551285
C         3.26463888010753   10.33734436439734   19.35765305363167
H         2.81829917624996    9.94732691798392   20.27839307611864
H         2.63347241132759   11.14132454630599   18.98783466286545
H         4.24447105517310   10.75984230288137   19.59581427788325
C        10.79260378193295    3.63666538616090   21.67025743083683
C         8.27707413057682    4.89441420577947   21.96091304151926
C         8.70068681660756    2.20727271671111   22.72269223075309

