77
CSD_code = IVEKAX | q = 0 | S = 0 | Stoichiometry = C29H42ClN3OZn | MND = 5
Zn        6.27779963882967    5.84002576114421   14.74270339188592
Cl        7.76648290692738    6.48033801283353   16.27732300710370
O         6.42701737945287    6.13436585172003   12.93894805578478
N         4.72584397172303    7.34837063336265   15.05740738083125
N         4.92159954825864    4.74429573124062   16.07474724012464
N         7.00576181656048    3.82290147521529   14.66843013620593
C         4.34103355154455    5.75959184487023   16.95143369756715
H         5.12109149580136    6.13144708764764   17.61661660009615
C         6.47887849672463    8.92673852482583   10.62039152497324
H         7.08374209406733    9.30670062716897    9.81760163679797
C         4.57893212930793    9.12112971198881   12.01957239505122
H         3.67469068669972    9.62601404667003   12.33380730042375
C         5.34646799747014    9.64283736137394   10.99018557314945
C         6.74965958927496    3.16724110303763   15.79398025064106
C         8.45221575470388    2.07602583031910   13.96909812900376
H         9.12493186040959    1.68232217478428   13.22436702408712
C         3.20618187280679    5.04312283891523   17.70413799933257
H         2.38628110049883    5.72268019379906   17.92874614544209
H         3.57411438874665    4.64205158439850   18.64829776921116
C         6.09475657415296    7.24685739411183   12.30634499475997
C         8.18791822705141    1.37753288461292   15.13747556328897
H         8.65131936842945    0.42032326375486   15.32515768949142
C         6.87168853153708    7.74952017578909   11.23452085973870
C         7.32130899313686    1.93014468304339   16.06487214744938
H         7.09627372707816    1.41973542439390   16.98891852407277
C         5.86325760924513    3.87548024702744   16.77526394037773
H         5.36260233315454    3.15913386243495   17.43642669252007
H         6.52456360112422    4.51260879154348   17.37281102520200
C         3.79938703420779    6.95381320980812   16.13769053359769
H         2.83510036194763    6.66925079850896   15.70363316554923
C         4.93076725883661    7.94988123245859   12.66481575956800
C         3.66499574515829    8.17965459532394   17.04942199256673
H         2.87443974074939    8.83832449706247   16.68502657011313
H         3.44127601260146    7.90759970355463   18.07936100681065
C         4.04636831470551    7.40234418765748   13.75095515623201
H         3.74838071159065    6.38240117972501   13.48498516908775
H         3.14063110809254    8.02334120989137   13.82805248597397
C         8.11655183872485    6.99366797295847   10.78368809153100
C         7.70169676840374    5.57897872573460   10.35551519500636
H         8.57927975407100    4.97894179801074   10.11905482481922
H         7.06606520105613    5.62784771103290    9.47305439537180
H         7.14322151774934    5.10100406946191   11.15380725477978
C         9.11527615712442    6.92740712002347   11.94700834686948
H         9.43198787276130    7.93105638408642   12.22411570589106
H         9.99495774633344    6.35276129352000   11.66106075752178
H         8.66196145355084    6.46084060309032   12.81703113551538
C         3.77239829999550    3.98215846752800   15.58703089413989
H         4.09039641426694    3.00038787729835   15.23632174758401
H         3.33244022576701    4.51235320899477   14.74130082490045
C         2.77288732860705    3.91168898696148   16.75747273763218
H         1.75262807139810    4.04791241171294   16.40344196888593
H         2.82035897161570    2.94401651306422   17.25585054895166
C         7.83402752802947    3.29963615174102   13.77739097041193
H         7.99628781065376    3.89178045999622   12.88925860881831
C         5.27448060149902    8.67913752519970   15.39882093670872
H         6.33284953908653    8.72810018079683   15.14538467779016
H         4.74528605675467    9.45235444686374   14.83118974280017
C         8.83022192105633    7.64833613230691    9.59590353353054
H         9.18742164184372    8.64411720581143    9.84817486413579
H         8.17759964306706    7.71102909460616    8.72779876570343
H         9.69339434470353    7.04315201915248    9.32317573268178
C         4.92553158048562   10.94344371098237   10.32093274203521
C         4.87344687729853   12.05774445152648   11.37606027636136
H         4.14839323412213   11.83175673630153   12.15340722373171
H         4.59398746361974   13.00352220580626   10.91492838222949
H         5.84863525647428   12.17479427970973   11.84426155415318
C         3.53661424837404   10.76099156371748    9.69237145723923
H         2.79528887655305   10.50076692534599   10.44294042432434
H         3.56371481554515    9.96429578995889    8.95199369724298
H         3.21859321278763   11.67964741027929    9.20257074702424
C         5.02202841998903    8.85353387859545   16.88755378426591
H         5.01710519553856    9.90038761241755   17.18316929180724
H         5.78931729225819    8.33044554092864   17.45745734542717
C         5.89087146003302   11.38293332406103    9.21697659436343
H         5.54270853038049   12.31772772751287    8.78070065125522
H         5.94165096788447   10.64051886889082    8.42406370623557
H         6.88907432795496   11.54837587806161    9.61513132620324

