67
CSD_code = IVERIK | q = 0 | S = 0 | Stoichiometry = C30H26BrCuF3N3P2S | MND = 4
Br        1.65486130500807    2.39478117434961   12.18309476487431
Cu        2.71018422161941    0.48859949009171   11.45424336991008
S         5.28300887661815    0.64419426068158   12.29335729331262
P         2.59116545203758   -1.61162000460448   10.69467052269720
P         3.83564318146924    0.89683495598900    9.34214291095400
F         8.67563130307847    4.55360013369198   10.36708070422113
F         7.24302508698622    6.15409499214088   10.46799899586755
F         8.23586196666658    5.46961590803897   12.25359614380906
N         4.69325173044127    3.19050900349106   11.53746770071426
H         3.66386398572093    3.16572371804331   11.66915440244412
N         5.32043296450735    4.32605239910219   11.22011354331904
N         6.81308340952116    2.79196985905587   11.74882051852519
C         5.57037395863218    2.21272575621767   11.87212603310909
C         6.58532143385867    4.07612672195392   11.33719035367158
C         7.67279401680291    5.07042480561478   11.09936923462281
C         8.06356036827246    2.14716385555816   12.02752918949550
H         8.62436372480838    2.71438324230404   12.77112696440722
H         8.65707226086724    2.05753172300552   11.11703004017476
H         7.83612358701137    1.15467237662372   12.41754620101795
C         3.99011027210765   -1.81312519225118    9.57247140119804
H         4.39341025217074   -2.80990222546651    9.42470517858628
C         4.50636110970848   -0.73594179449972    8.97233746816465
H         5.35930176761043   -0.80697617950522    8.30464990192584
C         2.58920538562221   -3.21950860305093   11.53791292381209
C         3.77637304877615   -3.61392054234314   12.15201796465956
H         4.65217610474491   -2.98172749154125   12.06911913296419
C         3.82615928285489   -4.79684008168638   12.86371400132153
H         4.74860869839593   -5.10580633778132   13.33311977088362
C         2.68878021182500   -5.58049922220078   12.98241573333659
H         2.72718962545079   -6.50423702095248   13.54032586057661
C         1.49996645305684   -5.17505182222967   12.39758968275049
H         0.61222085572517   -5.78146703849813   12.50172945931620
C         1.44247595394157   -3.99240337772792   11.68254569469689
H         0.51478088187620   -3.67050618024227   11.22921700901913
C         1.19066013209721   -1.72659213864468    9.53625742554931
C         0.17365041108867   -0.78336630122452    9.62225600280460
H         0.21408139105019   -0.02138538498247   10.39022968572016
C        -0.88203735075868   -0.81947097891551    8.72956740495517
H        -1.66921090138566   -0.08424577534162    8.79940746124564
C        -0.92179423127630   -1.79487460746196    7.74810530412139
H        -1.74275457058813   -1.82141503206054    7.04716496060535
C         0.08917771835849   -2.73985696346321    7.66233327208810
H         0.05343433089310   -3.50181868049672    6.89727650032019
C         1.14537623998762   -2.70950866717808    8.55223566628891
H         1.93399728247549   -3.44723351014675    8.49166294779179
C         5.10969650111141    1.97561175583879    8.61289685193411
C         6.45538632234227    1.66212824014806    8.79170068089278
H         6.73210444971252    0.73487485274313    9.27802527461027
C         7.43471712623861    2.53355289629106    8.35241109355384
H         8.47836580871562    2.27788895783608    8.47007910521650
C         7.08206825679174    3.74000952272830    7.76935736661914
H         7.85038906221302    4.42156544469321    7.43786912079095
C         5.74492032338183    4.07484511727150    7.62922497265160
H         5.46845013924194    5.02230033985065    7.19232479567976
C         4.76103022587256    3.20113624275627    8.05170776280349
H         3.71781001688052    3.46115042314777    7.93993186867471
C         2.48645794025551    1.03580768135470    8.12046878895771
C         2.37866754542743    0.20353977876397    7.01234758716770
H         3.12536359285418   -0.55714890513119    6.83049752449756
C         1.30904222522825    0.34544749007411    6.14872244462333
H         1.22411032235552   -0.30661263121212    5.29141952174654
C         0.34894700807042    1.31728897911859    6.37929054809105
H        -0.48434241828058    1.42153181344967    5.70025745502469
C         0.45432984145054    2.14925945039795    7.48107491642640
H        -0.29425179036242    2.90457762014818    7.66772221072300
C         1.51546710913921    2.00517477040141    8.35567659484818
H         1.58364720148700    2.63776693787095    9.23136681262707

