80
CSD_code = IVERUW | q = 0 | S = 0 | Stoichiometry = C34H29CuF6N6P2S2 | MND = 4
Cu        4.26834359614614    1.09699148909029    5.28738238348843
S         5.92845333078921   -0.45034561788277    5.02094092613184
S         2.83985303340607    1.09901762873978    7.20594157257865
P         4.57744918788716    3.27461448371836    4.67505043285410
P         2.65076659272928    0.77969621736716    3.66167160542230
F         5.24885121176872   -3.09537587679407    0.18924407923837
F         5.26667526429530   -4.81244302250432    1.47487187839557
F         3.39411114955710   -4.03316440113964    0.74705746058931
F        -1.05794510741597   -3.63758099533800    7.10916589165221
F        -0.71081597810761   -2.81860086417372    9.07059459821605
F        -1.89499073831407   -1.73113274172368    7.65081463633118
N         3.71913252564724   -1.62431339133107    3.99929329198836
N         3.39842110209004   -2.47283333568326    3.01293299508031
N         5.57744131351248   -2.17046614684052    2.96525341700110
N         2.16204879440923   -1.34591677346634    6.19364002311463
H         2.83965856475725   -1.44267375913647    5.38231629843136
N         1.20847853889937   -2.26817819469603    6.34608839469437
N         0.82835137111686   -0.59979720354786    7.73218591344170
C         5.03733825115455   -1.43124205452246    3.98542645160146
C         4.49813306900413   -2.78695124303470    2.39507876108863
C         4.58853957304562   -3.67808312093299    1.21188815588899
C         6.95868102167240   -2.24344555003250    2.59299663275209
H         7.51876740569029   -1.64442646077790    3.31091606105040
H         7.09924029815662   -1.84511282145143    1.58660057742991
H         7.30578388231656   -3.27719553628932    2.62548351978805
C         1.96012024523753   -0.29282079527171    7.01578232065765
C         0.41749398817911   -1.81863827173562    7.26707232508854
C        -0.80558281781837   -2.51352077355429    7.76406679064435
C         0.21589697663948    0.22519710670069    8.73312346172028
H        -0.77703775377988    0.53841428672724    8.40782931336381
H         0.85305461011585    1.09897543788568    8.86680552310522
H         0.13406310479129   -0.31899961844131    9.67444117472400
C         3.07947521637107    3.52928737065479    3.68415608955850
H         2.84619990775038    4.55996358650237    3.42846329467672
C         2.28534737962170    2.53067889195029    3.30148561079008
H         1.39457925256599    2.72418551260221    2.70820219798725
C         4.52306144420757    4.77069095584578    5.70205834113338
C         5.65815488676543    5.53611419883884    5.94895029198743
H         6.59013166252769    5.28764518986410    5.45975851025059
C         5.58506678921884    6.61536596678479    6.81015334357299
H         6.46415293082799    7.21593961428797    6.99303859839041
C         4.39112618821651    6.92505282989235    7.44145103926436
H         4.33947912470869    7.76829740982649    8.11410033156156
C         3.26607609100665    6.14643577368161    7.22007188782635
H         2.33933021363282    6.37886213220530    7.72420938792140
C         3.33174794741931    5.06712299858881    6.36042366112015
H         2.46480536751276    4.44046303074077    6.19491497745834
C         5.87375983018804    3.66342534162169    3.45428515058397
C         6.92643244637466    2.76367018692640    3.32446443625024
H         6.95727347593160    1.88852557781351    3.96188199127958
C         7.92361155193146    2.99481281757988    2.39349676173604
H         8.74031855510252    2.29500483758198    2.29411774079968
C         7.87236744867590    4.12348737627747    1.59281945382250
H         8.64826975087298    4.30430616290180    0.86350543309446
C         6.82941712710745    5.02696767836999    1.72853627242363
H         6.79759075193217    5.91107458652888    1.10847844732173
C         5.82971028003302    4.80211228427728    2.65611396471968
H         5.02345304633039    5.51300492779321    2.77011582821939
C         0.95503935784666    0.17440240314406    3.88191898581052
C         0.57407352855917   -1.12333168718526    3.54479608794326
H         1.27315040832527   -1.78075362609703    3.05038434598794
C        -0.69189765636908   -1.57475439537062    3.87227388582301
H        -0.98534280722737   -2.57729963004576    3.60090522092314
C        -1.57332028139408   -0.75788278439178    4.56252830066521
H        -2.55752037962568   -1.11765531298336    4.82285375181335
C        -1.18104580328709    0.51633057635592    4.94155881381144
H        -1.85751153769671    1.14724689284628    5.50071284377576
C         0.07785754686374    0.98000474188391    4.60859953350402
H         0.39442536428148    1.96786294482565    4.92029333365763
C         3.14456055981319    0.37612351064864    1.95452362795339
C         4.48443752508964    0.61633293658213    1.66250845559759
H         5.12229373644352    1.03936546342165    2.43028693454076
C         4.99283390695446    0.31165647798916    0.41512229923220
H         6.03426100951748    0.49994493171082    0.19659902942358
C         4.16369203399006   -0.24174538635203   -0.54807101990650
H         4.56130188045115   -0.50070493252761   -1.51757525128868
C         2.82680621592260   -0.46636763034471   -0.26436619264088
H         2.18073580022872   -0.89350308786995   -1.01694328390337
C         2.30898151637088   -0.15337383333210    0.98067672405379
H         1.26447380050212   -0.32594389291786    1.19170366184243

