50
CSD_code = IVETIO | q = 0 | S = 0 | Stoichiometry = C18H25BMnN3O2 | MND = 8
Mn       -2.02392052468436    6.82257699107231   12.78292560951372
O        -3.31469549690521    4.27673506598427   12.17236228732187
C        -1.40372645512707    6.24158901616661   14.32396945377541
O        -0.94612841070022    5.84279799982075   15.32086597082674
C        -2.74587719444518    5.26164558011932   12.41225169009473
C        -2.03548294806507    8.98076982264713   13.01387428560722
H        -1.35745604905706    9.67648099018368   13.49377960896632
C        -3.19306116795109    8.42872246972785   13.61599361760360
H        -3.51288985460425    8.59925502922529   14.63610898946979
C        -3.94227176401521    7.78886769654873   12.61598289547496
H        -4.93749119381825    7.37977966326784   12.73249117846410
C        -3.24928893953934    7.93514070971564   11.38890478788927
H        -3.64048529595370    7.68116746297425   10.41157821494899
C        -2.08957273194202    8.69585493116220   11.63425939006690
H        -1.43334193143214    9.09784733444967   10.87159955045416
C        -0.27785963291994    6.30611962926289   12.07049920152917
N         0.46664023930328    5.24627779512427   12.01069105779302
C         0.31567496323226    3.88424021240825   12.41130202020291
H         0.89670117126691    3.68274015375225   13.31522828206744
H         0.65351531404132    3.21395980900700   11.61807552556922
H        -0.73824301655424    3.69250137354347   12.63273235981464
B         1.16582620889856    6.42343207716291   11.39931275138707
C         1.37928543252694    6.49035921534833    9.77092592966326
C         0.13017989571411    5.93281048275322    9.08071398907856
H         0.21503827734910    6.01123783820141    7.99734812092002
H        -0.75363646575610    6.47722318197831    9.40455179950032
H        -0.01672347375499    4.88784314126177    9.34114103071431
C         2.58841981781156    5.65226245881440    9.32767041053155
H         2.70242898991225    5.69061506328755    8.24464875903445
H         2.45991483999842    4.61020620432309    9.61127434284392
H         3.50810913680870    6.02601589625994    9.77529729548033
C         1.60212875641490    7.92463499765416    9.27552041456327
H         1.71750055800750    7.94080442695851    8.19206682520109
H         2.50146108420939    8.35332515461478    9.71450652029271
H         0.75401834679966    8.55315658372543    9.53083566202352
C         2.34164060051670    7.03555614504190   12.30468047753176
N         3.37362129810468    6.36792735325670   12.84689666960612
C         4.14358180955521    7.22380852174696   13.58188591546725
H         5.01888048348507    6.90300588422156   14.10783785060878
C         3.57371191843488    8.44943482398631   13.48406711606458
H         3.86519731305759    9.38758835625892   13.90919748598055
N         2.46694267006776    8.31179913365759   12.69722623069380
C         3.64282856090480    4.96515517116390   12.70407068831062
H         4.68328485676588    4.81391887923505   12.41397124669887
H         2.98628652657016    4.56094725567314   11.93976384895224
H         3.46154412888615    4.44720470116425   13.64718378990568
C         1.55199167810221    9.37086217831329   12.38437562504516
H         1.38276969302160    9.98170480275547   13.27076812413967
H         0.61819492690256    8.91712208013886   12.06068107612265
H         1.94643305053840   10.00396825489563   11.58770402618964

