63
CSD_code = IVETUA | q = 0 | S = 0 | Stoichiometry = C23H33BMnN3O2 | MND = 9
Mn        7.66653222409937    3.95617023873236   11.52199545513606
O         8.87529721993180    3.34217894545475   14.10868817830672
C         7.35871824731808    2.22353805150225   11.43676817196152
O         7.20851023925932    1.07118050631089   11.38510316594943
C         8.33079625699505    3.61067023159686   13.10744710046835
C         7.29639854044418    5.46497992572946    9.97914580896591
H         6.38222261292804    5.94482506974417    9.64730936928201
C         7.88651433099178    4.32708134990132    9.40391074841195
H         7.51190831262695    3.79092313860816    8.54168480872636
C         9.15654372581532    4.13980512138464    9.99811701502964
H         9.90957061570495    3.43496188347353    9.66957501501524
C         9.34611940595943    5.16908718794085   10.94218634717418
H        10.26750045810604    5.38275877630231   11.46982662264997
C         8.18831642222408    5.97868276864047   10.94635089346045
H         8.09941314415309    6.94579742561161   11.42984978954400
C         5.45382907976238    4.08947592853834   11.85511846109289
N         4.52446233517032    3.76490810866188   11.11070333589276
C         4.55015611341665    2.93921463145231    9.93237213103887
H         5.58317922982104    2.67382246292643    9.65586119256885
C         3.87983951866112    3.68316883968155    8.77596230010585
H         2.87329779471557    3.97715261108336    9.08298834703199
H         4.44127944395380    4.59325483968560    8.55030829576843
C         3.80849473195183    2.79364540495935    7.53933932776854
H         3.32197649951626    3.33325733692377    6.72315193634694
H         4.82148363944668    2.54148812454780    7.21608690639185
C         3.04584393734417    1.50903010720206    7.84718511975952
H         3.01745632136663    0.87246141605975    6.96015631948698
H         2.01591109730840    1.75582776462330    8.11616646170098
C         3.70739810034259    0.76455959705631    9.00296915457663
H         4.71746708204549    0.46588286013909    8.71464422936806
H         3.14464214778547   -0.14179467189286    9.23467626373608
C         3.78337126522231    1.65042327799923   10.24120494773470
H         4.29292311779107    1.12423042971359   11.05019387423607
H         2.77829529457633    1.91076753486930   10.58053453957716
B         5.77817681050298    4.70200364799046   13.18572328489037
C         5.26171228394258    3.86540300616142   14.49967949037374
C         5.39535221586972    2.35761711401006   14.26722436860178
H         5.01909158001585    1.80278335386779   15.12521403690169
H         6.43787360872605    2.09035354285969   14.10326987778593
H         4.83327654309346    2.06066328333433   13.38682386684136
C         3.76602648821228    4.18912849363590   14.66570471252024
H         3.34303921229442    3.60363517332335   15.48003027766852
H         3.22802040958968    3.94955512970767   13.75334903208745
H         3.61713989474355    5.24310304984736   14.89302505960212
C         5.96938576109055    4.21112621410384   15.81243475674439
H         5.53332663303565    3.63744848605660   16.62935389272776
H         5.86030267871858    5.26642800325011   16.05255654451614
H         7.02356235130661    3.95992187168928   15.75585893909471
C         5.87877892082403    6.27476561140516   13.27136081432961
N         4.99010941226228    7.12095048181747   12.70689082204358
C         5.33137069482131    8.41108652786015   12.99835486364544
H         4.76400383834435    9.24783625748591   12.64586388590120
C         6.44788691554716    8.36445866881319   13.76286822976754
H         7.03193425986987    9.15278684727285   14.19174609412272
N         6.76805076147187    7.04714400464654   13.92817541453055
C         3.80188587342637    6.77950623635526   11.97240991961791
H         3.74367353950791    7.38673049927330   11.06848711060555
H         2.91955216106045    6.97771326125522   12.58365707669984
H         3.82466129685589    5.72455147653171   11.70821828326939
C         7.93842827800150    6.61319578014913   14.63739279877528
H         7.80099118728781    6.72514370356700   15.71349077681831
H         8.79637633360952    7.21230008052241   14.33005172407622
H         8.12454154922544    5.56844296803608   14.40480241117168

