58
CSD_code = IVEVUC | q = 0 | S = 0 | Stoichiometry = C23H29BClFeNO2 | MND = 8
Fe        7.92103885297398    5.92287700352520   10.15211560393963
O         9.30993246826765    4.87793691783371   12.46054238179735
C         9.50960349049407    6.34885965044154    9.55230257465803
O        10.57232978978035    6.63050305559082    9.23531199026908
C         8.72298870754930    5.27228178682016   11.55648007700395
C         5.74433436590868    5.96124068113792    9.46781557801446
C         6.46994772529806    7.00945928034282    8.83388316438041
C         6.95329961913801    7.89633407211941    9.85406019034799
C         6.55630011134202    7.37452576517599   11.11469419675837
C         5.83969781806222    6.15280579471471   10.87913227200349
C         4.90624579867619    4.94711604815072    8.75995446885399
H         3.97587350280947    5.41324071083281    8.43100437528226
H         4.65677318398420    4.11584778239323    9.41364768344188
H         5.41770979865157    4.55230178516878    7.88463881868228
C         6.45634563627814    7.29802780842327    7.36643012252199
H         5.60952849488935    7.94505591709820    7.12879867202203
H         6.35768171234378    6.38088263038077    6.79256233979759
H         7.36618712088887    7.80503450138579    7.05593306359334
C         7.56504921592110    9.24005679480760    9.60959373010195
H         6.77670252848560    9.98687190899801    9.49898108148806
H         8.15990721745309    9.23846788630082    8.69993865369239
H         8.20300998207667    9.53927421125688   10.43736308056289
C         6.67164248543581    8.06965010885390   12.43523183223884
H         5.78768713171634    8.68748564993655   12.60423935232964
H         7.54667612344775    8.71375479121505   12.46419755897506
H         6.74505618754336    7.35482444738452   13.25096300054689
C         5.05885695041658    5.41180155175495   11.92174969826786
H         4.11118112710283    5.92199063334664   12.10390253458162
H         5.60267590312968    5.36718558125372   12.86274079614876
H         4.83975282858271    4.39623511271372   11.60266991017261
C         8.02088531306886    4.20138051989229    9.29738193249158
N         7.61631546981246    3.04053931164933    9.62287827968560
C         7.18454861787545    2.38616327734613   10.81211888500342
H         6.20346871314843    1.93438993879894   10.65584206785627
H         7.13835352305849    3.09919980798338   11.63925922580739
H         7.89001427089481    1.59002276126541   11.05789886741425
B         8.21984485357764    3.09723904566482    8.19878630707768
Cl        9.89224320376007    2.36839880849976    8.10596425218194
C         7.33474718769345    3.07300417689442    6.88080882650703
C         6.28260158121129    2.17762457169182    6.66715803153498
C         5.50646021615862    2.26623092588333    5.51960542280406
H         4.69375291754233    1.56681491850696    5.37523174502447
C         5.75409256945116    3.22666437423535    4.55217958306411
C         6.81812079035763    4.09488093435864    4.74835271856622
H         7.03894642976408    4.83835543336110    3.99388729418991
C         7.60619834711091    4.02587583604343    5.88674553613215
C         5.96582427523590    1.11051549863932    7.67557144382620
H         5.49352401727240    0.25766289657547    7.19278716823257
H         5.27464171698547    1.49434261126771    8.42722800379082
H         6.87075306725805    0.77679964592770    8.17520793450796
C         4.91811700210124    3.29999836567264    3.30927634479366
H         4.91169172035611    4.30952198070741    2.90403910163679
H         3.89399441817639    2.99290205937220    3.51106501524828
H         5.32476004649494    2.63380242273607    2.54759002610524
C         8.76868174151754    4.96083581511755    6.04308287753405
H         8.78426818341920    5.70074350130214    5.24597095999345
H         9.69749876239655    4.39408261966877    6.00993605534369
H         8.73513516575003    5.46507807154086    7.00806729114833

