39
CSD_code = IVEVIQ | q = 0 | S = 0 | Stoichiometry = C14H18BCl2FeNO2 | MND = 8
Fe        0.00845044897942   -0.15832797348613    9.23309546736574
O        -2.69181703444099   -0.50896623881298    8.25914931823016
C        -0.60213236095207    0.49688819112108   10.73095961101328
O        -1.03785882283385    0.91491724512230   11.70476337932885
C        -1.61197623013154   -0.36745189260379    8.61486593152644
C         2.07544427672018   -0.70261559581438    8.33727241998333
C         2.18698380914844    0.31416216259576    9.32874406516892
C         1.46055346685625    1.46793816743248    8.86689378016726
C         0.83642052927462    1.12622692247447    7.63618744349380
C         1.18817962209556   -0.23614041387512    7.32858367580208
C         2.82253889544081   -1.99086795491501    8.31660320762145
H         3.73993531559100   -1.86811977994080    7.73820046664710
H         2.23380001715902   -2.78083545923056    7.85851728085652
H         3.09025476064724   -2.30473074226028    9.32109794871408
C         3.12577509763211    0.27599726894666   10.49278626747204
H         4.14065876992638    0.49800232008353   10.15908540424466
H         3.12549421484080   -0.70884729882143   10.95384131152920
H         2.84589555936631    1.00686921676573   11.24673701342800
C         1.53706949820530    2.83926712344431    9.46160169527893
H         2.40277652980729    3.36432000065540    9.05408168594511
H         1.64653670046842    2.79459888085304   10.54202251334600
H         0.64747068447912    3.41942033566075    9.22999448638690
C         0.14843602538603    2.07596368514171    6.70563144630448
H         0.88414716313344    2.53791337176311    6.04482227734288
H        -0.35920896038428    2.86551201560567    7.25380172340178
H        -0.58365128494852    1.56071958167389    6.08931023687592
C         0.90971221331030   -0.94035854789946    6.03874250534620
H         1.71941534840016   -0.75024531585179    5.33212194394756
H        -0.01972802138182   -0.59534271391138    5.59329071344485
H         0.83964912919087   -2.01387958385799    6.19471569702703
C        -0.07651563848589   -1.89886736361182    9.98439292522830
N        -0.83532265638090   -2.63420724240165   10.70906334148013
C        -2.10289548259895   -2.53067741831839   11.35167326062473
H        -2.74659602322481   -3.34352339975425   11.01172566178905
H        -2.56318562831865   -1.56830901171010   11.11683814871708
H        -1.96929143075311   -2.62314668552880   12.43105190834011
B         0.45552550352939   -3.33414260111177   10.32308132863958
Cl        0.33559899684519   -4.67064200378804    9.11319694262342
Cl        1.69825699840085   -3.54617125183121   11.62105556531776

