50
CSD_code = IVEWIR | q = 0 | S = 0 | Stoichiometry = C17H25BCl3FeNO2 | MND = 8
Fe        2.76565801646796    9.84236988495646    4.12126496415872
O         1.52490209924532   12.16822707796196    5.29983977569162
C         4.16852095911763   10.82596713403983    3.76741953841407
O         5.05433865868389   11.51615588443926    3.55568400926422
C         2.05618177361504   11.21633523047877    4.94868627440624
C         1.76610144036540    7.83782503390314    3.69334206849741
C         2.73382200091763    8.09774165358195    2.67337572813859
C         2.35619236886634    9.29469847776802    1.99673581668152
C         1.17889295704656    9.80322704834058    2.62282332409764
C         0.81677688835979    8.89831418555960    3.68029932120964
C         1.69212128691725    6.59600109924629    4.51485706890559
H         1.15420116877081    5.82610727800480    3.95923439761195
H         1.16956919148993    6.76709931218633    5.45221873010357
H         2.68315932914222    6.21277382801947    4.74361626117966
C         3.81100815752117    7.15121373782590    2.25645663540797
H         3.39156012364571    6.37713512594516    1.61210890348238
H         4.25934060803042    6.65971959860190    3.11710949626793
H         4.59488168605180    7.66477804984769    1.70592647084102
C         2.97107890651614    9.82177602780806    0.74071426521050
H         2.49543805403220    9.35156120807819   -0.12148133741623
H         4.03471913223618    9.60247441490134    0.70131350609318
H         2.83708188565528   10.89712108243735    0.65755989382576
C         0.32066337846319   10.91143048579171    2.09903739092622
H        -0.37124146351700   10.51721509542366    1.35290286299362
H         0.92217630106722   11.68501096817834    1.62849398788108
H        -0.26366007044952   11.36689551962187    2.89425534877008
C        -0.47802574093304    8.92158138122842    4.43015417978201
H        -1.25235333464892    8.43351979766310    3.83609496368357
H        -0.80037365579764    9.93995984350422    4.63354331148806
H        -0.39284519543474    8.39150411377662    5.37498961139732
C         3.79437872133607    8.89009570622648    5.48187676854126
H         4.35665998100671    8.17112134464363    4.88258902492247
N         3.95213958787128    8.64879688314015    6.73338574813376
C         3.34672074544842    9.56597602747577    7.74401911041241
C         3.67392888653629    9.23487467785550    9.20125434446255
H         3.14312243073690    9.94626146218975    9.82980056774463
H         4.73477788127457    9.32876154505341    9.40447318317242
H         3.35127482548131    8.23700234951063    9.47498876502375
C         1.82591129999241    9.48618885845181    7.58505552186139
H         1.34560240316689   10.21713278142460    8.22856766576109
H         1.49043523036689    8.49206393823252    7.87006607224374
H         1.53494987927865    9.67537150938858    6.55438829049271
C         3.90074394506801   10.96915712373898    7.47648491223465
H         3.39974907582318   11.69085272540834    8.11485362083764
H         3.76854040121741   11.26067173543992    6.43825848965976
H         4.96454301890243   10.98545305117437    7.70174862034103
B         4.66712773150196    7.29537331774200    7.18070399631029
Cl        3.36822004579759    6.27256930517347    8.00827163123252
Cl        6.13341103888915    7.64005209948339    8.21698470942208
Cl        5.26267595886233    6.31038397912486    5.71065218819694

