59
CSD_code = IVIBEU | q = 0 | S = 0 | Stoichiometry = C22H22ClF10MoN3 | MND = 5
C         2.73964914051226    6.70247445148607   15.48400246638005
C         3.61794053758687    7.83868092298770   16.02279575082635
C         4.82158431017009    8.07819683848250   15.10984235425857
C         4.08824437915900    7.50563079826239   17.44312507430819
C         2.78943016753149    9.13215685554990   16.07356865774323
C         0.45123194130523    4.48008241877210   14.75336405324249
C         0.78872781719453    4.52092892381685   17.12739756775009
C         1.88138597117947    4.51468523357008   18.21468962293432
C         1.42643878352828    2.59989796705799   15.85078174260937
C         2.28493098619357    2.12305756321248   14.67690776129104
C         4.14817928851067    3.71909163136920   18.38560551502887
C         4.41651315016023    4.12908074580421   19.70719391881558
C         5.48486260954414    3.62607013651716   20.43421395206960
C         6.33365065288481    2.67341038965294   19.87934264089114
C         6.07920092248652    2.21357954863623   18.58731878303522
C         5.00714089033311    2.72213770879926   17.88005903139426
C         4.11395757085629    2.98694893788126   13.36821932282084
C         4.75233246010669    4.13903622575402   12.85574135327037
C         5.70099980899211    4.12454659731795   11.85561659339774
C         6.06602288755637    2.90863698684758   11.27968127232663
C         5.42502636115800    1.75039220282922   11.70953388192876
C         4.47176558212471    1.78472229272033   12.71532207402237
Cl        5.87228307139398    4.82828237612108   15.81114400811703
F         3.63994785788514    5.06562934509438   20.28679222181077
F         5.69978388354016    4.06353328866254   21.67820750530544
F         7.36194419792978    2.18913026606462   20.58263224807812
F         6.84627818831112    1.26150227994239   18.05240030872956
F         4.71100117811077    2.20075428349716   16.66634115737285
F         4.31012833595574    5.33376691585780   13.34375123634902
F         6.24446912541009    5.26687985017082   11.42648459538714
F         6.98993860956741    2.85914559252367   10.31167475911483
F         5.73105115899731    0.57846175790693   11.14339097227960
F         3.89267189742968    0.61282379433470   13.05292295956621
Mo        3.53108327358540    4.67162917791919   15.71522249292924
N         3.15680773835544    4.21355293138236   17.58661041602300
N         1.33074942040770    4.06382088265944   15.84469329045569
N         3.23622939541334    3.16758809203195   14.37230207958554
H         2.53731893566571    6.92637922825894   14.42826944517766
H         1.78129931597816    6.80310733834760   16.00329793680443
H         5.44301281566180    7.18857331126365   15.03539195342680
H         5.43485700494054    8.88938714114010   15.49672887058315
H         4.49064352547013    8.34809557897131   14.10874043345964
H         4.67908835405059    6.58471256558655   17.44988373961965
H         3.23595543388340    7.38715079198771   18.11185180864444
H         4.71011777261917    8.30891091515271   17.83343121883006
H         3.40191078868806    9.95969720491627   16.42426980680937
H         1.94244591639183    9.02676878895774   16.74931635807877
H         2.41173353113738    9.38358360055923   15.08488651029052
H         0.87461824100685    4.16382172181822   13.80113652301424
H         0.36058528055746    5.56351963669433   14.73996726662300
H        -0.54815073005964    4.04241029736712   14.86548923469923
H         0.41608818842632    5.53678021495093   16.99297603284896
H        -0.05846431092706    3.89115549835057   17.43034112704052
H         1.90688134272883    5.49321079542630   18.70798145194263
H         1.65933001358183    3.76215819041463   18.98285889884125
H         0.42590923682648    2.14662888121977   15.80181751045195
H         1.90043529756004    2.29357119872955   16.78642238800585
H         2.78814266303608    1.19300707467490   14.96596070777054
H         1.66355783140948    1.90772381372202   13.79548713558798

