43
CSD_code = IVILEF | q = 0 | S = 0 | Stoichiometry = C16H18N4O4Zn | MND = 6
Zn        5.62658885493242    2.54875108896163    2.23239892514059
N         4.69979704713355    4.30370627467507    3.10609154864108
H         4.38615643424962    5.00903154811859    2.44638069833688
N         7.13147247909678    2.90585548558915    3.76216322172839
H         7.41242672103039    2.09024423234846    4.29770992772796
N         6.38188441245158    0.75397682703783    1.41654099404293
N         4.52268195622176    2.41577648678934    0.39330746990803
O         4.49463335253920    1.61766817258438    3.46492538830111
O         6.82975191852902    3.66808742373619    1.17088898162617
O         3.25852433330511    1.89129270194011    5.29102191771346
O         8.58775318232987    5.02052365599912    1.27828732468953
C         3.78508130255088    2.29354920957445    4.27195783315246
C         3.56582160163850    3.79133070872876    3.87205633564780
H         2.66623341110918    3.80363738133089    3.25182884418217
H         3.37152018441792    4.37762824005528    4.77752406245165
C         5.73209047216283    4.91613693589549    3.93983237609690
H         5.29513619453637    5.61773105792381    4.66531525513044
H         6.41420564358255    5.46512450411340    3.28660366658177
C         6.51608686657187    3.84730468445810    4.69535016599417
H         7.27266383654047    4.33815815340034    5.32481558267300
H         5.83198555471496    3.28948894755658    5.33910724195411
C         8.28940951851260    3.45707616400528    3.06164354574835
H         8.97018942487404    2.64670765523498    2.78834734222219
H         8.84105168661527    4.18336137644870    3.66954666401450
C         7.87746513783306    4.13462865771905    1.71353301789384
C         7.07004976943767   -0.19471193642995    2.02574457083769
H         7.30635026498442   -0.01775841910004    3.06458944280113
C         7.46247773457754   -1.36527936308634    1.39534017930783
H         8.02482023556174   -2.11352749093728    1.93044514600942
C         7.10402587774866   -1.54884300558196    0.06954154854849
H         7.37941788893522   -2.44998928326957   -0.45774728457311
C         6.37359118208242   -0.56036725479448   -0.56619884871842
H         6.05407276095709   -0.69269393663382   -1.58738988015654
C         6.03008447467865    0.59101967435920    0.14227418843228
C         5.22752575025182    1.66859396483865   -0.45737675880908
C         5.19683693385276    1.89459482538049   -1.83179881994952
H         5.81448243483603    1.31406836625679   -2.49814003645046
C         4.39443426224005    2.90645849208836   -2.32893929661657
H         4.36690386024696    3.11293693887406   -3.38848665843311
C         3.63055442821721    3.64602561387276   -1.44154260171728
H         2.97904690486072    4.43307191692251   -1.78639181419430
C         3.74066612732433    3.36518268147294   -0.08868984106920
H         3.16494758172043    3.92174064154569    0.63758843315266

