46
CSD_code = IVIQUB | q = 0 | S = 0 | Stoichiometry = C19H22Cl2N2Pd | MND = 4
Pd       -0.30317444888715    1.55060094011150    4.66904961134012
Cl       -2.14885962907069    1.32793340465466    5.87537935176596
Cl       -1.07335291484731    0.01912256550582    3.25588059902374
N         0.50354121293545    2.96158491637170    5.87026926145368
N         1.38059767564750    1.85176469574750    3.70182213408921
C         0.00862408870546    3.49238978379087    6.98469100199788
H        -0.95845577364669    3.11633563608356    7.29813957849646
C         0.68812337938204    4.46559565352951    7.69657890946708
H         0.25538348766583    4.87227861463966    8.59605792845676
C         1.92215403222669    4.91246709619985    7.23745067049834
H         2.46446862931877    5.67720316979960    7.77344769422430
C         2.45267685395285    4.36826608124207    6.07938501432409
C         3.77765194993651    4.78417361240006    5.51441170581923
H         4.56311728781658    4.18166425864971    5.98285890276509
H         3.97338530214116    5.82831201843627    5.76454118502795
C         3.81772278958434    4.58002390193232    4.00111314173339
H         4.80162455770543    4.84999183797421    3.61562069678887
H         3.07937989334056    5.23225872668836    3.52908377858028
C         3.50619963311872    3.12541850365199    3.65280061158681
H         3.51570091624277    2.96545332919643    2.57258275766628
H         4.27292730680771    2.47423680998639    4.08661779042725
C         2.16952303677384    2.73771191189707    4.21384463757260
C         1.70791877349086    3.38133487688594    5.42016970154893
C         1.69767983041411    1.13978408526456    2.53294026706890
C         2.33064695056975   -0.10198311744495    2.65113904400878
C         2.62212431209677   -0.79316790791334    1.48607544996532
H         3.11184612805910   -1.75175341998002    1.53412490297148
C         2.27223421433035   -0.27095869770065    0.25342425111931
H         2.51063748024171   -0.81998808529489   -0.64512247322921
C         1.58178193271364    0.92456734261104    0.16021074701497
H         1.27388976943584    1.28342973256069   -0.80804272759660
C         1.27044991410483    1.64710075686732    1.30078398036077
C         0.44583513785395    2.90876664560019    1.30973174818063
H         1.06834261539771    3.75045221719986    1.63662404956881
H        -0.34559218364999    2.77428322077285    2.07394367817734
C        -0.20919301872140    3.25694762033134   -0.01939709470948
H         0.53785659291525    3.48187636541506   -0.77803566210179
H        -0.84291554218959    4.13261616860548    0.10211605159236
H        -0.82847463011955    2.43249995295664   -0.36254311195073
C         2.58266688130766   -0.63289484416897    4.03916060088979
H         1.64049375456120   -0.51107781696732    4.61118911618414
H         3.34157154007739   -0.01556633867737    4.53461285650483
C         3.00568116703758   -2.09378898263224    4.10069046293516
H         2.26604077697780   -2.72118338891759    3.61067683137733
H         3.08687915710567   -2.40865060028225    5.13867485326857
H         3.97253917913884   -2.24323325358144    3.62442551374549

