92
CSD_code = IVISUC | q = 0 | S = 0 | Stoichiometry = C45H42Cl2OsP2 | MND = 5
Os        2.14607841263786    3.77814230158616    5.28680077203616
Cl        3.94684658077922    2.36768734896996    5.10416526840402
Cl        1.21176805002464    5.83592651559490    4.89239256551844
P         3.19998983737433    4.67049806285975    7.15825296038697
P         1.58865288330945    3.23989985140958    3.09669499768880
C         0.77349449922943    2.75058658342263    6.21493890718636
C         0.54402294449332    2.71587651588236    7.63790213934224
H         1.09213407425911    3.29709313740390    8.35945462093535
C        -0.45377829390347    1.83442329145020    7.91330351583297
C        -0.90935209231476    1.27888675116772    6.64353947088913
H        -1.69404380154740    0.55118786902626    6.53880614961642
C        -0.18801486961057    1.82733749821783    5.63972980897264
H        -0.30237861957937    1.61951107689376    4.58802992192114
C        -1.01330543526657    1.44491526231800    9.25021527535729
C        -2.51803071816457    1.74642580563341    9.27379278772349
H        -3.03665238817772    1.19149456996374    8.49663459831252
H        -2.69051629926498    2.80771679208243    9.10949347106401
H        -2.94247058162491    1.47003205744205   10.23693546184274
C        -0.78666420120872   -0.05903973827577    9.45858662583459
H         0.27753935819979   -0.28257823149250    9.43379275008048
H        -1.27627197764921   -0.63625784307668    8.67877070904238
H        -1.18604424560142   -0.37045525068382   10.42175642360625
C        -0.32621607384620    2.21582811936601   10.37962289679441
H        -0.47618238283002    3.28607813683400   10.25980260053135
H         0.74266748319947    2.01430733581022   10.38699245418297
H        -0.73989513532421    1.91642627962942   11.34055672075578
C         4.78306916672710    5.23849494971499    6.45719704182980
C         5.99903475087035    4.63863590200448    6.76370990290114
H         6.04127449234472    3.85752891072953    7.50976152924109
C         7.14791118906102    5.03473201740046    6.10187786417267
H         8.09129233183901    4.56572995970724    6.34122399874802
C         7.09073487730958    6.01896899526494    5.12903455312341
H         7.99023822346378    6.31845870050978    4.61084410616290
C         5.87930273428140    6.61505463133993    4.81525475204997
H         5.82856854971439    7.37880720000102    4.05250140207913
C         4.72841472505125    6.22473206312756    5.47225607692970
H         3.77986128162203    6.68824172605641    5.22723722331385
C         2.54553127585362    6.18831466271585    7.92378048425778
C         3.37093913251694    7.24129092627331    8.30575015432680
H         4.43688959457145    7.18905677877108    8.12526633594079
C         2.82648004427973    8.36486391250631    8.90153700475152
H         3.47097469262280    9.18130337780192    9.19456306319520
C         1.46076000384373    8.44654762998545    9.11646897339708
H         1.03997277585819    9.32766320273296    9.57839760421001
C         0.63484965073862    7.40470583415222    8.72686140248597
H        -0.43192216357902    7.47410138499965    8.88039636505743
C         1.17267291789970    6.27938190110797    8.13047630130947
H         0.53205879614494    5.47423855521104    7.79633873453807
C         3.71647552754859    3.68259687459767    8.60295568705141
C         4.18878002835057    4.28694926485688    9.76339151724782
H         4.25169897369070    5.36414557107558    9.82683798148358
C         4.57172785587432    3.50842937071892   10.84071566527599
H         4.93720957615603    3.98152641680402   11.74061548526093
C         4.48445722317545    2.12756307309180   10.76898301036923
H         4.78192938384362    1.52425198972216   11.61410574772430
C         4.01095257336880    1.52321041668428    9.61581606424083
H         3.93849255914352    0.44719566161456    9.55856647054010
C         3.62467376283133    2.29564945839377    8.53568156279719
H         3.24150951144941    1.83175006894200    7.63655946042770
C         2.50855762739763    4.51544682450443    2.17562873672617
C         3.90129234104836    4.48146401723114    2.24410531289788
H         4.39519544142550    3.65779491410565    2.74570003991029
C         4.64973130936299    5.49109099907874    1.67009993083855
H         5.72827341983550    5.45785385016841    1.72772755995692
C         4.01560925584416    6.54577899033425    1.03259614329280
H         4.60014729547986    7.33868573779090    0.58875924662241
C         2.63255626887112    6.58749969044299    0.97009189753499
H         2.13823143756678    7.41373732754187    0.48012454487255
C         1.87665518603530    5.58004533359323    1.54277642271221
H         0.79704989434761    5.62274765111492    1.51054543117063
C         2.20027800353067    1.69852899281171    2.34333579045550
C         2.73380225853591    1.66153338497022    1.05879600097006
H         2.82811613934117    2.57277946202518    0.48240502819785
C         3.16420145566638    0.46068458848745    0.52391813383748
H         3.57948319677407    0.43701372435974   -0.47348436996518
C         3.06986930764020   -0.70550398556365    1.26507100753598
H         3.41128719914221   -1.63990789024374    0.84421227717501
C         2.55099947047409   -0.66995984918366    2.54908298499515
H         2.49106794994918   -1.57600927355350    3.13365801702868
C         2.11842436600554    0.52702383352387    3.08908828294675
H         1.73783391270613    0.56866608056739    4.10095520202477
C        -0.09808933754070    3.38087500174382    2.41821977728253
C        -0.39115580211389    2.97677297243706    1.11953369265625
H         0.38256005817554    2.55026161488783    0.49690124384664
C        -1.67537185714118    3.11719021704277    0.62643399510406
H        -1.89934453300554    2.80373584083496   -0.38298113482723
C        -2.67254589054536    3.65717318314788    1.42300107394202
H        -3.67401195830634    3.76460199218457    1.03278634686777
C        -2.38508116757865    4.05371679212987    2.71845073964353
H        -3.16131411001956    4.47041834361480    3.34274634202918
C        -1.10283517046125    3.91462043838475    3.21858091079996
H        -0.87136599471189    4.21516771118992    4.23200599063778

