74
CSD_code = IVIVIU | q = 1 | S = 0 | Stoichiometry = C37H32CuN3P(1+) | MND = 3
Cu        2.09724282437446    1.44400533192991    3.61500473435981
P         2.07385163396598    0.47192073552093    5.61453424002060
N         3.26206838571936    2.51944019965943    2.40737070875424
N         0.80459719499380    1.57101323979501    2.00929782187624
N         3.34103686246635    3.71207984251324    0.54304001558588
H         3.06083142985707    4.13276987818787   -0.32749022677200
C         4.50996745200826    3.06520827450900    2.31823579619944
C         5.61999952080617    2.94969632026630    3.15192184533020
H         5.58102788409593    2.34189618502384    4.04106507987703
C         6.75825991646180    3.62831076864042    2.77882930919374
H         7.64031596870607    3.56311217296675    3.39648466325676
C         6.80991611587327    4.40131455855103    1.61240653069030
H         7.72661132888794    4.91385956759835    1.36665093589754
C         5.72606372939091    4.51705739766409    0.76770779653553
H         5.77212628073026    5.10458861828061   -0.13532066579906
C         4.57412894925638    3.83558183284811    1.13305457704595
C         2.58970824528626    2.90937225816530    1.33816252581877
C         1.24067837872695    2.43650706917992    1.10366328175892
C         0.45743473535091    2.82523349915015   -0.00102544653008
H         0.83663253947693    3.53996112065863   -0.71374746003493
C        -0.79134117307838    2.28400964923529   -0.14799440997698
H        -1.42042325654770    2.56381654166637   -0.97985802762284
C        -1.26336580762891    1.34084963888513    0.78773036007825
C        -0.40930744370081    1.00422877547434    1.87684267564687
C        -0.83579429166448    0.04718822100474    2.81939505945592
H        -0.16758860269849   -0.20843555303260    3.62998659169729
C        -2.06109468695052   -0.54492496505846    2.68899787076945
H        -2.38108703928658   -1.28325994658154    3.40828161761382
C        -2.91190857402356   -0.20471877376118    1.62319507375921
H        -3.87583890106217   -0.68267813780110    1.54388525757678
C        -2.52335679726458    0.71811456460305    0.69088547849319
H        -3.16983759794003    0.97943868746411   -0.13320015206976
C         1.44028228162163   -1.23143384026811    5.49988910952999
C         1.87019593517097   -2.04982433813736    4.44281700558410
C         1.32446131224194   -3.31990133659250    4.32247112221256
H         1.65471645413691   -3.96050584336942    3.51773723824089
C         0.36818186096378   -3.77877674018280    5.21229421769118
H        -0.03901207323316   -4.77170217370740    5.09903533458388
C        -0.06393262695590   -2.96216168142303    6.24284949298992
H        -0.81076536522204   -3.31135383751359    6.93919673223948
C         0.46580642247486   -1.69248679673606    6.38169836836491
H         0.12368116995097   -1.05518998716977    7.18404510736172
C         2.88774174993390   -1.56906811188031    3.45660962644442
H         2.49274158592406   -0.72185721819735    2.88527557804975
H         3.15170371263169   -2.35985630188529    2.75874917849185
H         3.79420130586857   -1.23274090290338    3.96037690805951
C         1.17426655402717    1.16331170515254    7.04569043597924
C         0.04217957661791    1.97114983202309    6.89326862266195
C        -0.57544819448540    2.46899755931347    8.03557789106102
H        -1.44825463660825    3.09610814725017    7.92642651354312
C        -0.10011204444665    2.17575790941132    9.30010196355308
H        -0.59913127859348    2.57506786044218   10.16952911544591
C         1.01593669323349    1.36786144403293    9.44661268863654
H         1.39221343786762    1.12856830437917   10.42922485859592
C         1.64867549491864    0.86935891098835    8.32563777513517
H         2.52060501040977    0.24057965418284    8.43849673230936
C        -0.53850703750083    2.28654860761567    5.55028688344305
H         0.24570391307195    2.39868243847376    4.79733011207645
H        -1.12074645410454    3.20406307998975    5.59143561670777
H        -1.20006611542866    1.48112265455345    5.22933186522951
C         3.75365036276228    0.29943507613399    6.29627435150778
C         4.50355221119119    1.46320399469036    6.51840935605063
C         5.80550860880231    1.33435526019490    6.98231817338674
H         6.39258929006574    2.22462266267699    7.15676808175175
C         6.35838124834003    0.09014768277693    7.23234926640255
H         7.37220840654483    0.01480571953920    7.59420185116977
C         5.60703669981074   -1.05441065468186    7.02668330514187
H         6.02759396956518   -2.02686651671945    7.23163860461477
C         4.31060099761908   -0.94974098469556    6.55779295870039
H         3.72092835495600   -1.84307009162259    6.40538688351794
C         3.90653057993135    2.81707930734840    6.29726968897072
H         3.35505536003192    2.84849962979911    5.35200105767208
H         4.67572283472911    3.58563853184339    6.28388975742290
H         3.20476722651390    3.05112381162744    7.09882711101307

