33
CSD_code = IVOFAA | q = 0 | S = 0 | Stoichiometry = C10H12CuF7O2Si | MND = 4
Cu        0.56558525535743    3.28928970835058    2.19202252177793
Si       -0.53431801261382    1.87421764598415    4.85977435666198
O        -0.71830056839813    2.25349422934702    1.17549733386189
O         1.92460910521987    3.48827681390209    0.83804479524992
C         1.08123516369682    4.11290215849890    3.92279980707864
C        -0.17358776581673    3.56138283919143    4.02519897900012
C        -2.24570008754784    1.28895065779840    4.27558932342731
C         0.83589007872254    0.65961854112825    4.33018597062147
C        -0.47977899963341    2.18995079435419    6.74025684582117
C        -0.46921304100793    1.93162208548087   -0.00531246116230
C         0.66957302301533    2.24400033200757   -0.75293837730570
C         1.76411048209769    2.98503730248207   -0.29221465407580
C        -1.54490340640311    1.08380865852624   -0.72134843572293
C         2.91026912680981    3.19737585619798   -1.30821436292931
F        -2.04260982349487    1.70393661793026   -1.79438576503731
F        -1.06629699057312   -0.09808794182386   -1.12110978869980
F        -2.56521285464569    0.83582822842885    0.10059913561098
F         2.49823712385597    3.85766859668751   -2.39461629709098
F         3.89681019367928    3.90835244834915   -0.76512122253002
F         3.43662946185820    2.03785834136818   -1.71491239736561
F         0.71904640461855    1.78987583769750   -2.02583693595035
H         1.22342865859606    5.17675544552466    3.78253106908824
H         1.94381987136411    3.58369587951117    4.30243242326797
H        -1.01522608573751    4.23796494076355    3.91170055261761
H        -2.48369002070988    0.30318651691067    4.66272709009779
H        -3.03117856052366    1.96437894289864    4.60090585363838
H        -2.28528813598346    1.23723208652271    3.19143641762747
H         0.60833349061648   -0.35562082769254    4.63895193156169
H         1.79791014078561    0.92069661169393    4.76017575155222
H         0.94691639389107    0.65698928910287    3.24835506313572
H        -0.65687811955265    1.27225307442068    7.29175050063360
H         0.48429235800020    2.58067218463800    7.05138614877362
H        -1.23721385954555    2.90553610382044    7.04458882676238

