64
CSD_code = IVOGEG | q = 1 | S = 0 | Stoichiometry = C29H27CdN6O(1+) | MND = 6
Cd        8.91190052314942    3.09805003763322   12.34777498581488
N         8.66017588244930    3.66651755417658   14.63924843235392
N        10.43552152773201    1.51280958714885   11.25970688864338
H         9.91540402582528    0.63703025857295   11.24180991533267
N        10.97931181927304    3.24127732141655   13.39695809581535
C        12.08546849718740    2.70314557402356   12.66192375160546
H        12.97720219914761    2.54375901007108   13.28077499875464
H        12.33117493356927    3.40298749736380   11.85697600819828
C        11.64586998775924    1.35636511250344   12.05404715085003
H        12.47823517954750    0.95064025890439   11.46152339020472
H        11.43667711244146    0.66652696532645   12.87631247246111
C         9.78646840255437    3.96940414345372   15.29144141716072
C        11.05168176905778    3.59312501644579   14.62021984206571
N         8.77244317419572    3.40569061124470   10.07698505559093
C         7.84463543101717    4.17346737317847    9.66134632750079
N         7.20504123061875    2.00562634729771   12.31092925124599
C         6.24130481348030    2.40605067914396   11.75314036611237
O         5.27475818183349    2.77201665609089   11.19243708722032
C        10.67091859308169    1.94419190463443    9.88545962176629
H        11.12787976431549    1.15173128024785    9.27523852040582
H        11.34728662201807    2.80303787511411    9.90145278905900
N         7.91345784210634    5.26252883324056   11.80110916380020
C         9.76568191384879    4.58080137671789   16.54382025222310
H        10.68603488407896    4.84662350224936   17.03980488172887
C         7.49276988122209    3.90981359331217   15.20893224759217
H         6.61869730574812    3.61922771128559   14.63825793034465
C         8.54018716813898    4.84281863679132   17.13790223450894
H         8.49604440155307    5.31021491814559   18.10975278038916
C         7.38002369573469    4.48837665828328   16.46809430430345
H         6.40968987655950    4.65737853927832   16.90620222607157
C        12.28964204496543    3.63082931442085   15.42651434609629
C        12.39269427850397    2.86059916889317   16.58410667758857
H        11.56711828523813    2.23013350066321   16.88089345354350
C        13.36326612750527    4.42909741611114   15.03634639200813
H        13.27905293188398    5.04115847553582   14.14996390369417
C         9.34570074340254    2.37697046245589    9.25382549612145
H         9.50096309086183    2.71590812778377    8.22182798779182
H         8.66040624358736    1.52025083839180    9.22997237747789
C         7.30894833095254    5.17087891759457   10.60856113109972
C         7.45823283961078    6.15336363200810   12.66893398590448
H         7.99258133456607    6.21924859527403   13.60974259148904
C         6.37254686715795    6.98054739274077   12.41678979241569
H         6.04024400658535    7.68572892838907   13.16168636261496
C         5.72785034902649    6.86980065995438   11.19545480448607
H         4.86894201298689    7.48101316308250   10.96514282872613
C         7.26674643174595    4.12359014274857    8.29906647428112
C         7.57754814783834    5.11301297952412    7.36976571090524
H         8.23912685715069    5.92039173106073    7.64963676887226
C         6.41512573800964    3.08197877820809    7.94264745519990
H         6.14954406995703    2.33562246652970    8.67587024260490
C        13.55530577866928    2.88581991182194   17.33228171371037
H        13.63171267042130    2.28022437602777   18.22205130209185
C        14.61596529693553    3.68940542914702   16.94480144567272
H        15.51852431441074    3.71307169171485   17.53510913494159
C        14.51620918898666    4.46314374240201   15.79995501147210
H        15.33865954756999    5.09297214673233   15.49813174956789
C         6.19700654364511    4.01731504186261    5.74192357634918
H         5.77927514114443    3.97713913324282    4.74797047152923
C         5.87700053065848    3.03854415021443    6.66877004704380
H         5.20507590205518    2.23802516193260    6.40093526335127
C         7.04844526463962    5.05229209459192    6.09287197200615
H         7.29679273710562    5.81817541107992    5.37419938207307
C         6.20920093497930    5.95772288109751   10.27152518609632
H         5.73479877885247    5.84078929955146    9.31034257373374

