64
CSD_code = IVOHOQ | q = -1 | S = 0 | Stoichiometry = C23H35S5W(1-) | MND = 5
W         8.25645988314488    2.41874786029405    3.92671073675966
S         6.70967443619325    3.96193052483540    3.01213227115121
S         9.97457801765979    1.17047823684091    2.93277306623259
S         8.40078840510199    1.93581889674502    6.23709733258647
S         6.75927697940365    0.84832276459006    2.98723913098781
S         9.83636562054189    4.18061772408061    3.80878360171451
C         6.05317102627568    3.39694890575575    6.33971185555454
C        11.36094157521557    3.43188390369489    3.42992412913421
C         6.62001225456472    2.11833143551415    6.21748763137784
C         4.67365370307361    3.49345365389973    6.43675727331473
H         4.21943341644482    4.46887386843237    6.52628886281941
C         5.81472444426468    0.96792771763994    6.22946154045566
C        11.41985993851370    2.14421141883646    3.04618625029786
C         6.93398825421613    4.62303826336896    6.44197955993523
H         7.82306247807277    4.46292656157855    5.81305705681375
C        12.69644816032195    1.46430466594165    2.64810287549635
H        13.16514871128479    1.98215782507871    1.80955569452639
H        12.48616732684054    0.43918646159642    2.35593235217156
H        13.40305829900340    1.45836161633294    3.47913409965097
C        12.56752983851758    4.32102165742055    3.49580829211685
H        13.28011841221048    3.94327783652292    4.23050415433976
H        12.26374477972354    5.32459592729504    3.78189229379396
H        13.07001384121002    4.36419889949819    2.52804935140628
C         5.22100162632849    3.04632305939304    2.83295706548380
C         4.44304393134554    1.12223523962619    6.33886585178715
H         3.81922803906269    0.24212331685491    6.36127480850609
C         5.24050970316164    1.70653554622967    2.82017785984578
C         6.45591129179377   -0.39966393511875    6.18850313819368
H         7.38250356195170   -0.31613208548917    5.60435350491158
C         6.26668435079696    5.90581709545867    5.95449438676211
H         5.85260861947376    5.75522859571366    4.96115673402609
H         7.01184625113936    6.69626997255842    5.89456774905133
H         5.47872317941578    6.23256499858090    6.63182767750155
C         3.85435817568380    2.37472918825571    6.43745241284388
C         4.03836700013160    0.83301920214439    2.62257664833171
H         3.55584294032251    0.63925669819471    3.58100281980993
H         4.35127225557663   -0.11787504500337    2.19561558577297
H         3.31111538926313    1.29894089586588    1.95806646842143
C         7.39439408524770    4.77641858062097    7.89550779347199
H         6.53453281716225    4.91174280859398    8.55149543187002
H         8.04937423184426    5.63991708558460    7.99143659339300
H         7.93979195497211    3.89131148213772    8.21516857477883
C         5.59372915191676   -1.46532010405641    5.51826069415877
H         4.71743267223185   -1.71142360925875    6.11628913525080
H         6.17845867450809   -2.37405372420522    5.38856788215543
H         5.27741461682774   -1.12183449132308    4.53756479920000
C         6.82154062656472   -0.81859039071799    7.61598969667879
H         7.49435264998074   -0.08942021228303    8.06117594902586
H         7.31594527970085   -1.78810413320782    7.60959973662166
H         5.92463628021504   -0.88607584208203    8.23122024846204
C         3.98641644479533    3.88663946107406    2.69551728776669
H         3.32749307629762    3.50348992987278    1.91576998808122
H         4.27004613409467    4.90724143037631    2.44904228595246
H         3.43630528353082    3.89869226514537    3.63821467656419
C         2.36139507604192    2.53010620140392    6.61398147971624
H         2.12623084370886    3.60099475928418    6.58279689629225
C         1.57124951123149    1.84166252404406    5.50070956116034
H         1.88457597974109    2.21498600881544    4.52882640062402
H         0.50533548129505    2.03294855045737    5.61972262100240
H         1.72823807556162    0.76582021120603    5.52197938347173
C         1.93770928823705    1.99135978735974    7.98363164489582
H         0.87078296731728    2.14322941623187    8.14161391147162
H         2.48342271809795    2.50151435470021    8.77476263818385
H         2.14965996167810    0.92705828117700    8.05549256581543

