65
CSD_code = IVOJEI | q = -1 | S = 0 | Stoichiometry = C23H35OS5W(1-) | MND = 6
W        10.18499046992167    3.05701145419853    2.38193906048542
S         8.25654720608151    2.86446566231525    0.89224115210342
S        11.45314270332150    4.53349056182041    0.90829223569769
S         9.58017797548714    1.14250148538206    3.77144054030088
S        12.23877819586571    2.92971139627259    3.73438292986240
S        11.12270367574563    1.31998935334643    0.86116246332336
O         9.47839200679621    4.18450566527274    3.38959897817374
C        11.36329077688530    2.60127797024215    5.23396764305223
C        10.25036181591573    1.84762373838499    5.25289888157072
C        11.98637011418799    3.14401153555646    6.48921387518209
H        12.25844628017574    2.33414970435931    7.16822570315315
H        11.28807708450046    3.80351766804677    7.00535436385592
H        12.88064320168583    3.70503247654200    6.23336302285108
C         6.17937499409631    3.49791714272637    2.59583860203824
C         5.23020110183944    5.72019875365749    2.79966732346009
C         7.15870168435884    5.35261759148841    1.37731731328706
C         7.13660652131905    3.99150238964543    1.70457023010137
C         4.89376588104664    1.33916037328674    2.64978592829562
H         4.02666217448389    1.80134735185089    3.11860511183881
H         4.93950696002940    0.29666805337067    2.95861673190140
H         4.76458468171107    1.37657665366507    1.57040653900742
C        12.54554715907572    2.12364287265478    0.22390179258936
C         8.24181558247069    5.94133525614676    0.50699919491024
H         8.83178518868354    5.11964939563991    0.08067444175689
C         6.20950699809689    6.19104762285127    1.93957031184087
H         6.24103555518130    7.24335713443841    1.69884608458980
C         5.24226909135336    4.37447561169119    3.12345585514571
H         4.50051361412408    3.99533688754927    3.81327371793799
C        13.88143876327410    4.15235421842985   -0.35251852104730
H        14.78512941085221    3.86969541721781    0.18869947218802
H        13.74664678941417    5.22713517826908   -0.27582312624957
H        14.01292613672940    3.88313103405721   -1.40128072332634
C         6.18214304718468    2.05845095259773    3.04793267979189
H         7.02109794631728    1.54368392024284    2.56256939086777
C        12.68335236526475    3.46027074738627    0.23087401657786
C         6.41730793339004    2.00040894858188    4.55787227149048
H         5.57570545866168    2.41720606749068    5.10839899704785
H         7.31199081538703    2.57319628495803    4.79951296631418
H         6.56911976366515    0.97044957220170    4.87274034389554
C         9.17176094647488    6.78068274344709    1.38786142898681
H         8.64583302138405    7.63820817208599    1.80443838021746
H        10.02701805898692    7.12929092012661    0.81368038782008
H         9.53897348458516    6.16301220826233    2.21435770337474
C         7.68121989903019    6.76026577248419   -0.65533607422815
H         6.99144598714179    6.15720600335332   -1.24188301121467
H         8.49487579670192    7.08476832556674   -1.30053052865398
H         7.15414140691503    7.64391391479919   -0.30101399304390
C         9.55548000217783    1.47482862404306    6.53164581287125
H         9.07405352622571    2.34767049929588    6.97479152188160
H        10.26668330747139    1.07450993513476    7.25495938528344
H         8.79884226432574    0.72409633501355    6.32419445927745
C        13.59756734933064    1.22373594738738   -0.35877121017941
H        13.77737068170458    1.46691101604130   -1.40666880297266
H        13.26625073955472    0.19217339478226   -0.28432050978744
H        14.53634874781527    1.33608014974201    0.18456247013157
C         4.19542488244116    6.64633858140124    3.39472427525100
H         3.52153135151632    6.04763639185631    4.01947175698550
C         4.86134013947621    7.69659762042712    4.28640425747171
H         5.51296391298575    8.33936574240011    3.69977878302540
H         5.46317158790410    7.21002444230603    5.05048003741576
H         4.11094855286716    8.31784134812879    4.77402606897484
C         3.35893535168749    7.31388361308787    2.30128156076114
H         3.98249534707996    7.94146520090424    1.66961621524138
H         2.58034547985126    7.93490363802510    2.74236726912370
H         2.88932105052025    6.55928535623630    1.67399456007876

