51
CSD_code = IVOYAU | q = 0 | S = 0 | Stoichiometry = C20H24N2O3PV | MND = 9
V         0.39754317588126    2.23162265902928    1.86431950021284
P         0.31170478641467    2.59214070308838    4.17173933626320
O        -0.72968080973200   -0.43995497874170    2.49178100436829
O         1.80048811526312   -0.21952673798379    0.94984518704637
O         3.32638974410262    1.96475290734780    2.26777684363335
N         0.91888047187940    1.55447668860794    5.30255534777296
N        -0.36418928686851    3.72941597299772    4.97802004843676
C        -0.24085344169421    0.59650149367488    2.28364498063655
C         1.25118256376823    0.74095077753509    1.34667686628046
C         2.17112677309718    2.03795145173019    2.14104139374988
C        -1.32202049542910    2.65063823131303    0.57767912058045
H        -2.17896561544213    2.01886476401512    0.37852859956075
C        -0.13926442942203    2.70099705905091   -0.18855896540061
H         0.05778913874865    2.12835598146281   -1.08551360272981
C         0.65996117473768    3.74963047172818    0.31192224190691
H         1.58541105726711    4.10351563355737   -0.12555945755861
C        -0.00883537581117    4.31851529319944    1.40322028936477
H         0.28895729742188    5.21217270600497    1.93434451678124
C        -1.23648500845581    3.63846190642971    1.56656091309849
H        -2.02647963494448    3.92347381505893    2.24881783429004
C         1.61970779511372    0.34497963409687    4.87559859931922
H         1.58488387129509    0.33789995134374    3.77996446399556
C         3.09393225572881    0.37512193633969    5.27947159591594
H         3.22234934298460    0.33434889624841    6.35797572731464
H         3.55901875931812    1.28266032463245    4.90070925924978
H         3.60338007011337   -0.47859854719835    4.84128484995009
C         0.91338966838714   -0.92022263095726    5.36240621020970
H        -0.12775325852129   -0.90339063651859    5.04833816675977
H         0.95564367374690   -1.02045508203181    6.44383747748685
H         1.39004559153468   -1.79007927109763    4.91908119307842
C         0.83625547908253    1.78195612651940    6.75203951825982
H         1.34725467358311    0.93709383743208    7.22205096153044
C         1.57181073466147    3.05275860007642    7.16947788378094
H         1.04674187876295    3.93237582322034    6.81504444082687
H         2.57855283845250    3.05425260552642    6.75948607404665
H         1.63600187546336    3.09659021209277    8.25399187240769
C        -0.60989504960490    1.77426192618946    7.23967730112687
H        -1.11536941528858    0.87498597732762    6.89743837338828
H        -1.14137214199289    2.64076975470853    6.86342459904466
H        -0.62844561807027    1.79430260277668    8.32658842290848
C        -0.91483574253743    4.93503362597945    4.61110597792656
C        -0.09849270063036    6.03471659800673    4.34186911016576
H         0.97503903833987    5.89505289776222    4.34547364189225
C        -0.65670357884788    7.27163825154672    4.08433770195812
H        -0.01381774542147    8.11401365915260    3.87248202020401
C        -2.03255406226555    7.43439222920127    4.09206779919770
H        -2.46584445726279    8.40110458040419    3.88475921884387
C        -2.84849532091454    6.35007669576788    4.37048114611288
H        -3.92213314182920    6.47088125090489    4.38167852171182
C        -2.29910603579199    5.11000087806933    4.63323702456164
H        -2.92924947817242    4.25972049345159    4.85437884853460

