49
CSD_code = IVOYEY | q = 0 | S = 0 | Stoichiometry = C19H24N2O2PV | MND = 9
V         0.57306152009635    4.91534811495139    3.20210253332567
P         0.87590368465237    7.25147529338819    3.98348437647317
O         1.91574894606823    6.14874295117870    0.85394778881554
O        -0.82596401975790    7.04008397726710    1.67940021836007
N         1.46172675509180    5.79957116037782    4.51247293255162
N        -0.42013965067120    7.64549308783574    4.97738149617764
C         1.35365472376428    5.69128686803045    1.76690713486635
C        -0.12478094665569    6.36158860068360    2.35838105272974
C         0.17080959648883    3.04154050198963    4.24961823523962
H         0.38909248565123    2.79988312612041    5.28307130468639
C        -1.06541428005596    3.52584599931683    3.76562981013499
H        -1.94604174117862    3.72248272803902    4.36410372907052
C        -1.00887903935725    3.54510741828283    2.36369561649294
H        -1.82213457562946    3.80346242657930    1.69762976995330
C         0.26058119962383    3.08939715250472    1.97674212557898
H         0.58691105327508    2.90518011259707    0.96119769832143
C         0.98132753163470    2.75348778931388    3.14364656407363
H         1.95227161103702    2.27558595493453    3.15805581725347
C         2.23190587990491    5.58232048013446    5.62467924611350
C         2.92585775070428    4.37380744081374    5.77105922541150
H         2.87455783555834    3.63989302780718    4.97747635275319
C         3.69510631667585    4.14042987659509    6.89300442225315
H         4.22425748555204    3.20363119899355    6.99135270080372
C         3.80204200023837    5.10077750778361    7.88721599607271
H         4.40263067893991    4.91149446586720    8.76367018939112
C         3.14939466038507    6.31441446610566    7.73728586390603
H         3.24668424835881    7.07788786901743    8.49543332151006
C         2.37820114102621    6.55688383929068    6.61951801607172
H         1.87732388107142    7.50697829731366    6.48412593645666
C        -1.25079938165238    6.65004501311172    5.63615428670018
H        -0.73932254866331    5.68624234768351    5.48392203569423
C        -1.34947953104994    6.89306414231375    7.14307161203424
H        -1.86822888340271    7.82353167294168    7.36206047052471
H        -0.35581252210116    6.93360441702768    7.58323298683185
H        -1.89909131285120    6.07918921958437    7.60966534851885
C        -2.63527501113279    6.56341225568198    4.98778785860632
H        -2.52935652269632    6.39236872797368    3.91617408468707
H        -3.19939128382368    7.48064298707674    5.14005299046693
H        -3.20068186257130    5.74371192494019    5.42579881949215
C        -0.83166629318674    9.05083269331645    4.99074349465124
H        -1.76231052185362    9.12083506967652    5.56128662750227
C         0.23356678898443    9.89633702744788    5.68722391452047
H         1.17841807251764    9.79932357790399    5.15319120426145
H         0.37414806755292    9.56765531852319    6.71470841966363
H        -0.05807007460507   10.94348616364457    5.69454766645237
C        -1.08073423696770    9.56566065893710    3.57657361564661
H        -1.81778585368448    8.94919808643009    3.06890885899695
H        -0.15513337775500    9.53039470489760    3.00201671898342
H        -1.43609044355028   10.59308225777293    3.60428951091661

