106
CSD_code = IVOZIE | q = 0 | S = 0 | Stoichiometry = C42H57ClN4NiO | MND = 4
C         1.94286548236747    9.29921295921659   20.72636052582116
H         2.64491154233686    8.51071515730734   21.00506216135627
H         1.48132628549162    9.67779500375261   21.64121895274524
C         2.68437894324864   10.43903843321623   20.03538803822624
H         3.44820791829827   10.83987835795096   20.70538723008729
H         3.19029615272592   10.05404399960815   19.14712962642683
C         1.71157308718170   11.54336360076788   19.63238180745015
H         2.25141712337316   12.34342021514049   19.12190323266514
H         1.25741519235612   11.96851373071955   20.53092068632222
C         0.61743756744522   10.99208416068464   18.72256437402347
H        -0.09318035688007   11.78226211181676   18.47423496038969
H         1.05991596260086   10.63873502276423   17.79073007475968
C        -0.12024062692962    9.83955057423688   19.39310285377126
H        -0.85419593880410    9.41300312206710   18.70636974065145
H        -0.64656978905163   10.20331815589644   20.27901637136999
C         0.86270556626237    8.73903874879189   19.80122798569092
H         1.32609437115240    8.32136141294789   18.89158974898891
C        -0.53143835925718    7.72161457639253   21.60456987585885
H        -0.50676404602978    8.58586137416535   22.23483786343687
C        -1.18069179593911    6.54685156294897   21.76583030795751
H        -1.81265170000673    6.21354653722370   22.56226696537313
C        -1.44863320472918    4.46801933272819   20.41495225989692
H        -1.05024100120887    4.14654835596003   19.44445371290984
C        -1.00516581075018    3.46512111221781   21.47993250139478
H        -1.35060994319546    3.79034695945581   22.46446394658137
H         0.08544848875690    3.41838807044476   21.49569916804071
C        -1.58084674420638    2.08894713024161   21.16312834674079
H        -1.17858847860013    1.74923116239847   20.20679832917425
H        -1.27134265490911    1.37522724904497   21.92901215580167
C        -3.10379367482625    2.14962244176930   21.08994271270964
H        -3.50297301929267    2.44445836711204   22.06370985662396
H        -3.50375123535458    1.16213965230157   20.85128803514553
C        -3.54772260797028    3.15587321291966   20.03243795692435
H        -4.63777103961934    3.21002061324083   19.99914688820528
H        -3.20069224065716    2.82077458202651   19.05338782805941
C        -2.97418625574041    4.53807674725708   20.32649514619638
H        -3.25375210199293    5.24294221248702   19.54023449062215
H        -3.38256865492741    4.90562049280986   21.27092124811179
C        -0.07363399221853    6.44647501216651   19.83231422204150
C         2.02133855052053    8.59300062390574   15.38192805340709
H         1.05273838697403    8.67029597895129   15.88152105740664
H         1.85543892298934    8.68604552421286   14.30588170938901
C         2.96287665176664    9.69270201070441   15.86139200634168
H         2.54058199928960   10.67087086477499   15.62342851535243
H         3.06741510985733    9.62383342122097   16.94644044060068
C         4.34265591010445    9.55170443243094   15.22500007776607
H         4.26098225427664    9.68558588803033   14.14378397586785
H         5.00680810627641   10.32926597816637   15.60771366739266
C         4.92776325231860    8.17371076668479   15.52183697070456
H         5.06002363527536    8.05369976272196   16.59956519860840
H         5.90641103840653    8.07172350509587   15.04862591861683
C         3.99136634419986    7.08577651265299   15.00615552340825
H         3.87892110941571    7.20313601108916   13.92633476346974
H         4.40909730526474    6.09755169443867   15.20156356284656
C         2.63291048631933    7.22283730216450   15.68876717694603
H         2.76469797030169    7.13855531034319   16.77743282190509
C         1.53919379391888    5.66663626353499   14.05191595775053
H         2.11701392949334    5.98328661374622   13.20957213697289
C         0.53798753095331    4.75945347644823   14.12579870645653
H         0.10111300839841    4.15173282732764   13.36100084882417
C        -0.96861770433055    3.94497435364272   15.95797750032468
H        -1.04316358229075    4.21985355748657   17.02484675078869
C        -2.28253923168989    4.31709412117532   15.27225971310105
H        -2.45788302152831    5.38622416287467   15.40714683820656
H        -2.21457670121989    4.10954144547535   14.20156833893829
C        -3.42892289096706    3.51597636897059   15.87893829255935
H        -4.36094732120446    3.76607870875907   15.36879382977424
H        -3.54073931026245    3.79334803206515   16.92869135156213
C        -3.15938974031969    2.01774995296315   15.76766112585303
H        -3.97657242111612    1.45845090356459   16.22799358811697
H        -3.11585258018598    1.73533878094834   14.71269322460508
C        -1.83991986518414    1.65274280731551   16.44191620071752
H        -1.64637540633352    0.58373293578469   16.33175078578475
H        -1.90078742604947    1.87013302620250   17.51019264636715
C        -0.68534940998265    2.44836693326876   15.84248024150401
H        -0.55819903005159    2.17780142127790   14.79107882459480
H         0.23946501555435    2.21201184823092   16.37305582579482
C         0.84756074859622    5.59289218318800   16.16614544661307
C         3.43348079353465    5.97607969477858   19.53499694503821
H         2.74113054195741    6.33428726489834   20.28341228501586
C         4.76645525269336    6.39199276723089   19.56634309498587
H         5.08011459874872    7.07783895098449   20.34166402802624
C         5.68012464818269    5.95486110068411   18.63945906473677
C         5.26109203334601    5.03508944392415   17.64089718890527
C         6.14825429977270    4.53013988159004   16.66455258381538
H         7.17584962402189    4.85855205920004   16.66549393753736
C         5.73032718049699    3.63647469990078   15.71763179812719
H         6.42554958160343    3.26295132891644   14.97952921551633
C         4.39952369514519    3.19882553349420   15.69707845263824
H         4.08063442232428    2.49002423209339   14.94687198990228
C         3.51180675801794    3.66985871624183   16.62367943074363
H         2.48884789733027    3.32746467984365   16.61405393256738
C         3.90950654465281    4.59273718341186   17.61204963184152
C         2.98900591113145    5.09748431844046   18.57478613716305
C         7.09951128353386    6.43525698593066   18.69470913663678
H         7.37807264097038    6.93421691736150   17.76676517089927
H         7.78284040593467    5.60074140520396   18.84920906546220
H         7.22836396702985    7.13842759226787   19.51415739447184
C         1.55569442882962    4.71730115288555   18.50081504081797
Cl       -1.26476317139235    7.25595998646358   17.29309125436436
N        -0.89352905799674    5.77955860436137   20.66995178148115
N         0.14466278649694    7.64383033365807   20.41782885057513
N         0.12605762875870    4.72901939061672   15.42820069127043
N         1.72242379329233    6.16411165635838   15.31387814762898
Ni        0.36943756219045    5.97987782126414   17.99762836527551
O         1.13761012145246    3.59157846166236   18.68220358050138

