72
CSD_code = IVUCEI | q = 0 | S = 0 | Stoichiometry = C32H33Cl2IrN4 | MND = 5
C         6.98371089751531   18.85854964186112   19.18509069047810
C         5.62478158600874   19.19743606505936   19.14816692528420
C         5.12911300277792   20.19847240599811   19.97477557205440
H         4.07864002122730   20.44952696297103   19.93283476350448
C         5.95612105197744   20.86708688191468   20.85480318907992
H         5.56084026832312   21.63846002838176   21.49773681254018
C         7.29543422008994   20.53616479583296   20.90194996501436
H         7.95130168925472   21.05698674714384   21.58517805488433
C         7.81707364102341   19.54894018601768   20.07480807102246
C         9.31185757142322   19.32017077240233   20.13791740656422
H         9.75734419784779   19.78143031885967   19.24599004304221
H         9.72620178019506   19.80104753067830   21.02685824452533
C         4.62275236828116   18.46529618737592   18.28173513742279
H         4.43609693886910   17.48622088210126   18.74320694411474
H         3.68357535571696   19.02169136778342   18.24519285401246
C         9.18530303037900   17.01344402377097   19.31954958916200
C        10.67847353109875   17.37993055664607   20.92696631841460
H        11.22038719505777   17.94067947732113   21.66075117619402
C        10.78367561590011   16.08053166475657   20.55882527226807
H        11.43556730612454   15.30292059551442   20.90155466694616
C         6.28514744479763   17.76783908936962   16.62230078694299
C         4.30632200189303   18.36594155893202   15.80206146713102
H         3.29714479126474   18.72330339177915   15.82239695287105
C         5.07469133880687   17.96007422549362   14.76264925860078
H         4.86023464299210   17.88822739636452   13.71578388000180
C         9.64330219623673   14.64548805696795   18.89016072810213
C        10.12589221018766   14.49710226107158   17.58976910647491
C         9.88859430179387   13.29719702097242   16.93435265051680
H        10.26348148708245   13.17035698128833   15.92887605655081
C         9.18790777042524   12.26625252786407   17.53962583282548
C         8.73256000490542   12.44016477292755   18.83961396305776
H         8.18513103759373   11.64208895307080   19.31965020086426
C         8.95215980579438   13.61830735895455   19.53467056319511
C         8.41950218234735   13.80345397170885   20.92043927555370
H         8.04423383413722   12.86299754664693   21.31410679951049
H         7.59630616290426   14.51780234234149   20.88995558231199
H         9.17951782827931   14.19128408540670   21.59657279917939
C        10.88773274332764   15.59687120167734   16.91724371481027
H        10.23237927137207   16.43488793545051   16.67370285584649
H        11.33136263867275   15.24384956728607   15.99000693324140
H        11.67779663292178   15.97820639281008   17.56396254583060
C         8.91146793559753   10.98599558578083   16.81085338170025
H         7.84984544325004   10.91347424070032   16.57534312933161
H         9.17244007404421   10.12872067980949   17.42855842830848
H         9.47518951718832   10.93329317906091   15.88253436305106
C         7.39339742844713   17.10039278986222   14.54653227037059
C         8.15829847415282   17.98509664135356   13.78440690840329
C         9.25592322529569   17.48336992801325   13.10450360778566
H         9.86789197428094   18.15858629869283   12.52422644700416
C         9.59815872612598   16.13911626935859   13.16609289124959
C         8.80611008655595   15.28214871615672   13.91297145692678
H         9.05028526945171   14.23056576287837   13.95779752071370
C         7.69927749825462   15.74112209250332   14.61306933015106
C         6.85713459238192   14.79560393744673   15.41260466713067
H         6.99224449000606   14.96014942446650   16.48313253759558
H         7.13179686921805   13.76566294416006   15.20015401283299
H         5.79829561996782   14.93190127153245   15.19273444983635
C         7.83281095711584   19.44508317494322   13.74861156721856
H         6.78449064443899   19.61981048543802   13.51189755646432
H         8.44985884386620   19.95572475041972   13.01448870120074
H         8.03596456200992   19.87609844805697   14.72930534818927
C        10.81050724870209   15.63873862808322   12.44070897184349
H        10.77446060040736   15.92587720243416   11.39098426942008
H        10.88589959673109   14.55591327238435   12.50399425729507
H        11.71041849118635   16.07567571019266   12.87301516208822
N         9.69209081524505   17.92956288383683   20.15761932283801
N         9.85851798338408   15.87524292191769   19.56970647641164
N         5.06919616067197   18.24276444042919   16.92892398401811
N         6.28625161913816   17.59580105893821   15.28747363725101
Cl        9.19257968990244   18.84501303291656   16.86727423327086
Cl        6.37834103456988   15.73514372159473   18.91494630825141
Ir        7.73020293146606   17.39746677588168   17.97784115181997

