85
CSD_code = IVUCAE | q = 0 | S = 0 | Stoichiometry = C35H44IrN4P | MND = 6
C         4.93579442060428   -0.66164008447077    3.79821915244867
C         5.13722820685725   -1.97288273037505    3.33895537036751
C         4.09892931273626   -2.81992244587553    2.98124222780385
H         4.31501571284685   -3.81302781560726    2.60522606364979
C         2.78560259049050   -2.41319822945804    3.11755297278593
H         1.97087212729328   -3.06674555722894    2.83965843446475
C         2.53866743274372   -1.16175467740259    3.64463781941815
H         1.51507238542823   -0.83727826050133    3.79546779889221
C         3.58754427485732   -0.30991414475519    3.96770780634939
C         6.52737972551041   -2.55666591038871    3.32782309966052
H         6.84687614030312   -2.67167663763849    4.37465787375660
H         6.51457447615179   -3.54762435193533    2.86389880144567
C         3.18590398807622    1.05494143130799    4.48821378228612
H         3.17906157174405    1.76746489209223    3.65075767346202
H         2.16753204895159    1.01185033976352    4.88829453897135
C         7.75436011789890   -0.44686376409052    2.81927844429645
C         8.54073888467017   -2.36328793448526    1.93879831823064
H         8.54544220383651   -3.40852784606821    1.70415908709024
C         9.43049940904623   -1.39374026229727    1.64362759560468
H        10.35891579086184   -1.42732835252793    1.11129582142909
C         5.39110295053634    1.59027577201770    5.46993402202371
C         3.58775524903385    2.10380243294061    6.69958053451399
H         2.54500840137782    2.17978386832480    6.93404084044884
C         4.67824980666939    2.47200013523452    7.40776222109135
H         4.76727349144388    2.93158043642176    8.37133647082075
C         9.72059063795096    0.95916694174595    2.12260786825601
C         9.90243610771689    1.58773391003113    0.89031205177296
C        10.64106433790312    2.76295024584057    0.84020472957213
H        10.76614710935422    3.26016291618491   -0.11169246894347
C        11.22166671744588    3.30085152152155    1.97654337787464
C        11.11372172298000    2.59782225063161    3.16873762471246
H        11.61465893626113    2.97220224980271    4.04990582922216
C        10.39606668860661    1.41622314446116    3.26005066778462
C         9.38961583727576    1.00091301739189   -0.39503434783007
H         9.04515185750432    1.78577177519673   -1.06559301980841
H         8.58286173216188    0.29055258778520   -0.23169049670741
H        10.20124379830441    0.47262841106178   -0.89878194970081
C        11.97396090410190    4.59626273535586    1.92254136664659
H        12.21710332498408    4.86503473645758    0.89741300980241
H        12.89502087949036    4.53151477650375    2.49828678603240
H        11.36842125304221    5.39514005159366    2.35114782913781
C        10.40516062476396    0.62739816270752    4.52882151128502
H        11.14650046426668    1.02484677486120    5.21646872696872
H        10.63076938514960   -0.41852636964732    4.32519654303359
H         9.42637791822026    0.67164290102593    5.00332016639682
C         7.10632168797159    2.34184722993582    7.09492743069633
C         7.67331944276386    1.39234880055866    7.94607484491164
C         8.97499418549334    1.58545740087617    8.37777986634239
H         9.43038250299360    0.85084234439384    9.02684013809485
C         9.71146089224304    2.69637594650876    7.98856223294840
C         9.11352690670510    3.63728256754442    7.16610975131120
H         9.67172905894127    4.51175566023905    6.86260380652734
C         7.81095471447530    3.48141341897431    6.71563791749746
C         6.88733619145558    0.18972620614204    8.36854811700731
H         7.49918389369183   -0.47708956459984    8.96994671909335
H         6.53793266029388   -0.34688513308765    7.48746333448599
H         6.01415562648373    0.48214555794574    8.95168582305859
C        11.12294288397145    2.86584740368682    8.46561164569540
H        11.71802525454998    1.99183381716633    8.20529596605544
H        11.14712555261513    2.97226204878122    9.54981518983538
H        11.58186122014813    3.74577627636457    8.02218025014541
C         7.18111896100787    4.49324839365146    5.81198026832609
H         7.07117456278592    4.04859187357837    4.82330756066857
H         7.79938821274006    5.38378261250384    5.73416246164442
H         6.19165748358607    4.77732646564597    6.16844086054739
C         4.41173226557324    1.30979745216232    1.13398203516717
H         4.12246036479634    2.04575867586836    0.38365801419850
H         3.52666652095578    0.92711636101483    1.63477342419374
H         4.89764968039975    0.46656166740382    0.64253172233743
C         6.79534324192135    2.66839370762730    1.07228792223086
H         7.14059241053158    1.84107899303168    0.46150675609667
H         7.65207271749057    3.11429512950791    1.57300587436058
H         6.30990203991086    3.40895372851015    0.43552866969198
C         4.85746952473914    3.65566847988482    2.72579410181114
H         5.66951102864918    4.35899120666274    2.90678593304033
H         4.24303922327227    3.62169684991261    3.62213072587485
H         4.25772418451474    4.01122749518264    1.88749359282361
N         7.53394487825293   -1.77403563133657    2.65353130491402
N         8.94914248967275   -0.23012094151717    2.19264435521236
N         4.04035673030244    1.56655805117011    5.52470299596083
N         5.77216358251390    2.15321732152240    6.64629191990594
P         5.62862713728361    2.01444933918268    2.33374754881245
Ir        6.51995904411217    0.71267443627026    4.03256344145971
H         7.11720521502732   -0.14354527035061    5.17558450738324
H         7.65740486771409    1.79836057797386    4.18538839280829

