39
CSD_code = IVUGUB | q = 0 | S = 0 | Stoichiometry = C13H23MnP2 | MND = 8
Mn        7.78171028074555    1.07621602528702    2.24715537504376
P         8.98851664989572    1.01338160291160    4.06711363467560
P         9.65831595078707    0.67166692777259    1.18793705708887
C         7.38176870775051   -0.66158004514946    2.38486212813356
C        10.51256802307990    0.01277661925277    3.72013907637727
H        11.23784931179169    0.09414036769121    4.53444187576276
H        10.16579751505678   -1.02328204238741    3.63416212783046
C         5.74584968228479    1.77709801537230    2.46781721622345
H         4.89745614153123    1.35060502538667    2.98778946620025
C         7.10911254401585    2.48813951080630    0.78015857128518
H         7.46961931441460    2.70355614578436   -0.21936459124327
C         6.95568629361864   -1.89213375042901    2.45541581900105
H         6.91749207029653   -2.54154601695219    1.59081875118258
H         6.59600919217850   -2.33253349719538    3.37599686343228
C         6.03296846913498    1.62790352479252    1.09337809131931
H         5.44048744187322    1.07013374106253    0.37909258469501
C         7.49480502002220    3.16086141824030    1.95768658440971
H         8.18405502592051    3.99485639945461    2.01202768247722
C        10.42034972509262    1.85856179664586    0.00979074027429
H        11.44481586396485    1.56038589923253   -0.21325358344362
H        10.41476373668376    2.85666304867307    0.44468047488154
H         9.83489948669264    1.86696705160300   -0.90872167936549
C         9.73005701902971    2.55454643693861    4.74393724825441
H        10.45041037164411    2.31964006646409    5.52728946898289
H         8.93618393933760    3.17650811034641    5.15502590297427
H        10.22143029280649    3.10055270182995    3.94020927737266
C         6.64550577696911    2.72845665455939    2.99740587238693
H         6.58872732484503    3.15859415532863    3.99188577938146
C         8.42660721133804    0.22716560226495    5.62487925455565
H         9.23472151609335    0.18122551838556    6.35490115094841
H         8.07544183044536   -0.77396238325239    5.38017010540213
H         7.59474805137783    0.80208670203377    6.03051995019392
C         9.84593653208271   -0.87533743733931    0.21406976358859
H        10.83998447312994   -0.95085894604229   -0.22609711604422
H         9.08749323305174   -0.87909731942514   -0.56775353645612
H         9.65434064095051   -1.71157810636136    0.88534544316751
C        11.07742394001239    0.48307751652119    2.38868993169418
H        11.82316949198843   -0.20919635314925    1.98948606879090
H        11.53852190806518    1.46803931304154    2.50591116856485

