48
CSD_code = IVUJIS | q = 1 | S = 0 | Stoichiometry = C16H28O3Rh(1+) | MND = 8
C         0.60986784549943   -0.00990226032053    6.24089142513130
C        -0.55126126709178    0.83921297910789    5.98694996100550
C        -1.11440658137031    0.46071710254196    4.72583807834256
C        -0.20683667481609   -0.46586248900830    4.12598747416917
C         0.82242512958921   -0.80306545957331    5.10643954061967
C         1.33015775863901   -0.06682957013115    7.54703289118518
H         1.51796220438702    0.93138823454536    7.93849421945809
H         2.27525157051151   -0.59634026218379    7.46159572032196
H         0.70735148249454   -0.59404097943701    8.27098865413800
C        -1.19500045212846    1.74344286707346    6.98148676983159
H        -1.92679292341386    1.17702890376278    7.56008454620306
H        -1.70981600542246    2.56005850055849    6.48095195669739
H        -0.46520308727107    2.15879266066179    7.67199234116404
C        -2.38047707633387    0.97730729651968    4.13527111677987
H        -2.80538368918809    0.25088145174416    3.44772447561926
H        -2.18564286554935    1.90077088165971    3.58721622795173
H        -3.10197479138773    1.19138141040150    4.91967101029567
C        -0.43069763389741   -1.19102311780995    2.84163817765492
H         0.50619085636051   -1.54723102644014    2.42021454964505
H        -0.93299748089442   -0.55399306247454    2.11794877516428
H        -1.06460735041543   -2.05885950691296    3.03229964118362
C         1.82568223885803   -1.89324684049029    4.92182375720144
H         2.56697825812255   -1.89216174340384    5.71619694958161
H         2.33997031065240   -1.80075243935032    3.96638230081408
H         1.31377521571842   -2.85612754149171    4.93261137240849
C         3.22573965679834    2.97867446859623    5.85312579998604
C         4.12211827842076    1.78419002253980    5.89500518340353
H         4.27850053937790    1.48916444377133    6.93183945286085
H         5.09599129517562    2.02610471868287    5.47656507649668
H         3.67487729415980    0.95675628054033    5.34405371344555
C         3.79669786606634    4.26105662808859    6.36819059455088
H         3.01362610436518    5.00094935131360    6.51168764472261
H         4.50742252898720    4.64705507021018    5.63797283833844
H         4.33819507992991    4.09972854661258    7.29662185363355
C         2.66881014113769    1.35040780842355    1.81501381287493
C         1.48019587117371    1.40350591148028    0.92074698477637
H         0.62203446032177    1.78324740653172    1.47713669028824
H         1.25721668359417    0.39280164535960    0.57928700706136
H         1.67232526080192    2.01470668394626    0.04406675083636
C         4.00869136132900    1.39127710704273    1.14926841444338
H         4.17775162468186    2.39885319309914    0.77086535892229
H         4.03053435924712    0.71703734996946    0.29673856934544
H         4.80340575653466    1.14098127676029    1.84715905275686
O         0.20666315754331    2.81884938637348    3.37264659685126
H         0.73062663603119    3.61545240808139    3.49095310106184
O         2.08259530256117    2.93896248490946    5.42848906784175
O         2.59241516530913    1.26684408938227    3.03296673924281
Rh        0.85815058418409    1.33784772836561    4.49256776369462

