107
CSD_code = IVUKER | q = 0 | S = 0 | Stoichiometry = C37H63ClP4RuSi | MND = 8
Cl        8.17121342036834    4.69191941511698   14.38727424602739
Si       14.02336798171080    7.56764338513555   13.48289949699058
Ru       10.00435468791508    3.81257313425774   13.12392607418963
P         8.43408513849321    2.42181929442618   12.12894924971043
P        10.59141061263622    2.62527979752111   15.00065008282223
P        15.71292317024403    5.46168656605022   11.48217658418615
P        13.62925241139859    5.93639818222154   11.95032916502910
C        12.62005506050852    4.68564401349914   13.00640138039008
H        13.23882450789201    4.25157836583259   13.79713540438728
C        11.43122029208344    5.41888703106083   13.57127997837391
H        11.57007247884791    5.97736471738169   14.49309911887109
C        10.50411402437625    5.91820697643871   12.64026134862843
H         9.86022478064522    6.75967419829333   12.88575341371035
C        10.32433436584996    5.23916138415377   11.41951526722803
H         9.67672911528704    5.63610240327490   10.64522929018207
C        11.04733056737035    4.02960783189570   11.21131856414343
H        10.84650373335247    3.44138360493083   10.31846886277952
C        11.98206681207234    3.61295054659303   12.16924152257860
H        12.55027763841597    2.70526863048461   11.97694840994363
C         7.79956322848368    3.28613975143639   10.65167681674157
C         7.13040854183616    4.48686839164528   10.88958305984615
H         7.01828934658620    4.83665211374767   11.90799898889250
C         6.63243712946602    5.23228592818095    9.83905038774072
H         6.10993737023212    6.15746522804379   10.03465909072280
C         6.81079920393078    4.79769386675997    8.53418822173752
H         6.42687309810281    5.38130051387363    7.71026393124215
C         7.48995716736967    3.61729392420783    8.28989257501188
H         7.63906753814533    3.27964830868428    7.27400900687381
C         7.98280432221888    2.86204757356858    9.34160901402787
H         8.50855897664927    1.94347127136873    9.12756678997160
C         8.82488084036418    0.71480750154403   11.51643371813503
H         8.67549355291213    0.05616724219313   12.37850704097356
H         8.09767745149459    0.43426889275423   10.75090405713816
C        10.24835353844457    0.55611218757667   11.00200594756588
H        10.47634678651849   -0.49463304141335   10.82872104310127
H        10.95233003220319    0.94653573602949   11.73586481192529
H        10.39640447682642    1.09228628101898   10.06765961503898
C         6.82534280089780    2.07905888111608   12.97955075301887
H         7.04811632799524    1.46995243053012   13.86029682556051
H         6.46465467419762    3.04354949689640   13.34493238479918
C         5.76327236171597    1.40490135550499   12.11913700787181
H         4.82125401294155    1.37784333002317   12.66347233254120
H         6.03683274900396    0.38195473316027   11.87157540781724
H         5.60544125191076    1.95633769983784   11.19435346323825
C        11.83669521071533    1.30997173313108   14.77029244374757
C        13.18582011770656    1.48840259361966   15.05691323203977
H        13.53924056362516    2.42020803550833   15.47133026436468
C        14.09407205815153    0.47007295544406   14.82491082264351
H        15.13662629490186    0.61898226555837   15.06624900773821
C        13.67359559787045   -0.73604301869617   14.29291826840765
H        14.38534200753017   -1.52805962504457   14.11313396559506
C        12.33372487739223   -0.92044295963228   13.99250217349757
H        11.99667326889797   -1.85865790599546   13.57597944229234
C        11.42671644954538    0.09500517942435   14.22714840746031
H        10.38268891344348   -0.05016267115180   13.99141448163366
C        11.34220321847376    3.56909922127014   16.40361950317097
H        11.72852475455236    2.85102238283169   17.13418433648192
H        12.18931858580223    4.12862063622389   15.99785747411670
C        10.36090446257208    4.53876260461303   17.04979931890467
H        10.88707537350521    5.22176052046534   17.71499055917963
H         9.60888383604486    4.00940243088750   17.62894434763754
H         9.84331754975331    5.12105831010099   16.28915643573140
C         9.23658987165571    1.71549448470027   15.86669677571690
H         8.48012480212990    2.47322194284259   16.09583395532196
H         8.80021383744216    1.04340913096705   15.12096063731068
C         9.64024268806119    0.93119115640451   17.10875525804136
H         8.79662256774523    0.33860642191473   17.45843945712167
H         9.93994448145239    1.59265185189118   17.91671557060458
H        10.46560248310685    0.25540569828786   16.88972197966595
C        14.22042521428985    7.12125128917803   15.34411259133788
H        15.24065731909651    6.84308748242832   15.58762454774720
H        13.57474919112320    6.30203178191311   15.64561923709134
H        13.95850594380141    7.98026991928138   15.95448636805208
C        12.54625555050656    8.77503684471567   13.33094489798566
H        12.24193569795030    8.88769641271664   12.29456520953281
H        12.81581822343296    9.75700658274010   13.70671785962655
H        11.68179952740234    8.43699289149946   13.89253407582308
C        15.58884364813375    8.51574146542304   12.94296721353790
H        16.49228870484898    7.94385189592096   13.12661880453436
H        15.67131412524164    9.45646633260656   13.47699900254509
H        15.55152563522724    8.73361013197560   11.88054349574759
C        15.42513598143321    4.87908066063603    9.68384870144116
C        14.24518775056657    3.93978855785811    9.45843186293161
H        14.38384700516172    2.98349170126925    9.95486489252265
H        14.12895887900672    3.75339084029290    8.38992754020620
H        13.32619227376148    4.39394746839769    9.82623869215939
C        15.15156231531300    6.20028710543045    8.95703010682831
H        16.00736414983355    6.86820228147683    9.04723660172024
H        14.28177807195882    6.69718816567990    9.38669092382925
H        14.96014973217567    6.02359679443997    7.89926031501462
C        16.69897712530544    4.26726769632330    9.10364470554515
H        16.86038939861796    3.25745489497244    9.47355416062526
H        17.56614408792116    4.87844918796928    9.34865964325649
H        16.61811592967564    4.21349466467797    8.01769754916745
C        16.37888999033283    4.00485105713696   12.53684871518207
C        17.87853719161162    3.88057184493808   12.24953903186215
H        18.07091437672630    3.44365890575356   11.27530930274405
H        18.34488598681641    3.24365847883207   13.00144707428213
H        18.35546745620367    4.85843902733798   12.28826893055261
C        15.70463489102652    2.65182448460861   12.35700396189018
H        15.87634021436183    2.25431802524589   11.35982622406913
H        14.63408150219524    2.71680043860421   12.53018962839935
H        16.11894536764266    1.93996563514126   13.07204150548539
C        16.23609588520503    4.47623546141546   13.98516606536585
H        16.73434506769008    5.43570272332517   14.11674231514486
H        16.69347353254220    3.75665309367586   14.66476979594488
H        15.19294560381367    4.59499532164601   14.26389058013819

