62
CSD_code = IVUSOJ | q = 0 | S = 0 | Stoichiometry = C30H20N3O4P2ReS2 | MND = 6
Re        7.47592110084412    4.34314678766165    8.40715750585664
S         7.48335475254480    5.16785261146274   10.94675438620684
S        12.94801361296614    6.28936784489505   11.43127376879404
P         9.44992736806339    5.56721761578344   11.07992567783181
P        12.50211016475716    7.27676519247201    9.81487815689598
O         7.77388856424261    3.61746205920424    5.40006393939927
O         4.74508577014774    2.96056199333114    8.91190227992962
O         6.26686945871567    7.17199598340381    8.01533686050106
O         9.09226255314516    1.96158473037295    9.56609618775768
N         9.35245265333480    5.40924762237666    8.35296524492724
N         9.99108932006406    5.78903127254278    7.27220996334364
N        11.06430060509039    6.44596128940443    7.57378692634561
C        11.15869009570886    6.51486322677740    8.90982588534340
C        10.05494625443473    5.83839826892339    9.43194755330903
C         9.62318078777919    7.09128567095888   12.03249282763670
C        10.31310815741815    7.15134260314205   13.23486603588664
H        10.82614962802889    6.27809250625841   13.61004795212595
C        10.35623233108418    8.35036417265808   13.92358480374055
H        10.89327727628593    8.40783123982727   14.85836406372654
C         9.71649418790285    9.47080441321530   13.41888382162223
H         9.74995998772517   10.40117978610952   13.96576805601384
C         9.03189273016610    9.40623281462549   12.21528031514406
H         8.53786997841727   10.28137809805040   11.82105680228431
C         8.98248789302837    8.21539142277747   11.51846359244172
H         8.44243794972151    8.14680843563569   10.58178574867910
C        10.30204649148700    4.17371020466382   11.85163023976152
C        11.28312696241982    3.45520987511643   11.18194856970262
H        11.61368351472983    3.76758734168499   10.20098728172210
C        11.84428568781249    2.34941378393045   11.79279497635340
H        12.61168098006081    1.78865675893306   11.28134688526070
C        11.42286693995674    1.96348776072894   13.05473630286573
H        11.86601297750955    1.09965627115579   13.52714907048475
C        10.43018639129647    2.67381208817187   13.71243282185545
H        10.09791644698068    2.36403135152442   14.69203389226015
C         9.85916537208650    3.77811007714092   13.11004703594504
H         9.06693087572090    4.33332735478201   13.59697695663522
C        11.96871296301537    8.99416001790136   10.08982188084062
C        12.30504572936524    9.62527008341441   11.27875638449527
H        12.85974896373744    9.07658143850606   12.02815419304209
C        11.92461840182705   10.93886040563972   11.48529009073289
H        12.19244880992863   11.43830146634987   12.40450549975296
C        11.20219353479984   11.60963948695241   10.51219635030642
H        10.90216624787314   12.63431084519702   10.67565113594363
C        10.86431600324134   10.97448982660032    9.32643756900912
H        10.30351838271927   11.50315976026842    8.56975855607789
C        11.25030075710657    9.66571865035915    9.10690465565489
H        11.01108908105176    9.16253650258598    8.17960009224000
C        13.84810876477541    7.36430786890500    8.60032292852144
C        14.57317111687494    8.53222271495003    8.40780047536067
H        14.30046304231737    9.43251585703445    8.94235215518742
C        15.63659587964109    8.53358487765986    7.52300109693410
H        16.20047593968170    9.44115737475133    7.36455525811269
C        15.97699247696533    7.37604070553303    6.84269916628309
H        16.80610265185133    7.38342529018795    6.15077189253032
C        15.26099741345742    6.20734473795867    7.04954896046100
H        15.53101525833614    5.30512879093888    6.52130922896137
C        14.19997532381217    6.19661986803756    7.93393651317827
H        13.63595252319957    5.29038762952539    8.10863578081367
C         7.64870256739477    3.87374494352141    6.50424802005320
C         5.74603805410719    3.45504840811786    8.68428961832553
C         6.65204919029608    6.10706323998410    8.07679279688174
C         8.48229510092593    2.78550867941562    9.07535731168353

