93
CSD_code = IVUZOP | q = 0 | S = 0 | Stoichiometry = C36H52O2OsP2 | MND = 10
Os        6.05648565967724    3.03754869766193    2.82132309384323
P         6.56769163946329    4.52931854267227    0.51587414475902
P         6.80313711141582    2.38384500908631    5.12374949697101
O         6.88968756519742    5.37314037969452   -0.64714068234529
O         8.10309972164980    0.68862840088716   -1.69773637798455
C         6.93336074794713    2.80396575945077    0.93132584434661
C         7.43847794717329    1.77085030272681    0.25732412055466
C         8.02783252795257    1.73970903116344   -1.09309660563154
C         8.55600121769846    3.02842526319175   -1.65325227705350
C         4.79982763434898    4.41818890917601    1.02713310884396
C         4.65083521659856    4.86006462254305    2.32014673968975
C         5.87348851221688    5.17512153285758    3.01780125195367
C         7.03326023642437    4.97944589582948    2.24457844167002
C         3.73840774238672    4.03748580423426    0.04663611408770
C         4.26497583964456    2.93338485179765   -0.87399100129993
C         3.23843600948436    2.56832636369311   -1.93862981741271
C         1.93894493199646    2.11736456612736   -1.27857938215980
C         1.39963344739337    3.21560001123401   -0.36759167240832
C         2.42572422399755    3.59516828941263    0.69701976902875
C         8.42145156845243    5.46101358356353    2.54062720241698
C         8.58631755004182    6.87919843145367    1.97255389618503
C        10.02259753476266    7.35708747988113    2.15982966495696
C        10.41736122827268    7.32011646943811    3.63352141806249
C        10.23347647891207    5.91618868665158    4.20379850530093
C         8.79075248547384    5.45642582913792    4.02301797738537
C         5.01797236687695    2.21167781734914    5.01623442901385
C         4.64145912054139    1.39292602585099    3.95251482576480
C         5.73118233729571    0.84111191168581    3.21833821652209
C         6.99803534730129    1.23268015190271    3.74497760795611
C         4.06385908222733    2.76622421122564    6.03291234481976
C         4.13670486528567    1.88646975172539    7.28993650869143
C         3.19927113742821    2.40041242941569    8.37658176334555
C         3.54178374234173    3.84207561920557    8.73715719389807
C         3.45767017078949    4.72755514522931    7.49839275927723
C         4.38856557651788    4.21385959276559    6.40538367548999
C         8.30548563227357    0.55361052861122    3.44386483500063
C         8.60206624700767   -0.47408813503834    4.54450008799800
C         9.92159398277937   -1.18783252219602    4.27041531477314
C        11.06526044337748   -0.18317771841816    4.17251227621222
C        10.77593154078870    0.84747106951411    3.08533076392080
C         9.45617713882310    1.55727735863306    3.36316060896617
H         7.41088581379136    0.77998754877347    0.69830547727714
H         3.68639306358203    5.01079859991381    2.79368648908874
H         5.86506074791931    5.70071296715606    3.96633268108541
H         3.60956135352675    1.13541696452199    3.74603443778063
H         5.60905941386541    0.03660471994454    2.50217993567259
H         9.24311657916115    2.81715504129671   -2.46925200356677
H         9.04942461064887    3.61483476222561   -0.88203792035323
H         7.72975402543509    3.62129368532858   -2.04040253984462
H         3.54197150609593    4.92414081992135   -0.57508284832421
H         5.19305719338988    3.27628635887570   -1.34172048532498
H         4.49830046487681    2.04897855890045   -0.27408060981165
H         3.04428111691534    3.43668529991636   -2.57235952233709
H         3.63408442382786    1.77225637106086   -2.57158935117360
H         1.19744430482935    1.87134885748598   -2.04100600320891
H         2.12622190247782    1.21586243236571   -0.69027173531509
H         0.47783823956582    2.88214229654604    0.11449742881510
H         1.16186600869952    4.09763047787943   -0.96708549672872
H         2.02103854316951    4.39877558337952    1.31674891918908
H         2.62217901180941    2.73354214159399    1.34173587832337
H         9.12000313311951    4.80588241831980    2.00118635034503
H         7.90063108744899    7.55359262490940    2.49157467577397
H         8.32275528927672    6.87766455126273    0.91383571407196
H        10.69389705601209    6.71251383815765    1.58812883276115
H        10.12421475898946    8.37266494798673    1.77237253064995
H        11.45675377638547    7.63458566190978    3.74702667396002
H         9.79352675222337    8.02152556939977    4.19282847470198
H        10.49533802552708    5.90782694427250    5.26381044249083
H        10.90144972151088    5.22294149513909    3.68783304394565
H         8.65740065873126    4.45134699053647    4.43129725096363
H         8.12942990059485    6.13350371164041    4.56738430568981
H         3.04224702815840    2.72106152430139    5.63259212204350
H         5.16730738250201    1.89476012987738    7.65691806249579
H         3.88271609362180    0.85656769782862    7.02877041797888
H         2.16700061507099    2.34986694760077    8.02088645624679
H         3.27925777068072    1.76411356433894    9.26022405910296
H         2.85668480744884    4.20877544653911    9.50404641065390
H         4.55495710966286    3.88278125950890    9.14371897429173
H         3.72348449124825    5.75542932446523    7.75465858515613
H         2.42970137714225    4.73176070340219    7.12602578068046
H         4.29714028354436    4.84720402101068    5.51978431263839
H         5.42646686791302    4.26087299967270    6.75090592513959
H         8.23204142562869    0.02100438139863    2.48971318765391
H         7.78658586122024   -1.19852617200834    4.60176076347621
H         8.65564930984301    0.04849149084701    5.50424561761980
H        10.12311111584859   -1.90627467697787    5.06755032973924
H         9.84494056584595   -1.74185142431730    3.33213033884493
H        11.99904658393466   -0.70432468540198    3.95325987185869
H        11.18208307217926    0.32630362067088    5.13183688003674
H        10.71998773132486    0.34943891541110    2.11490613851777
H        11.58624564181175    1.57755402067193    3.03992436279116
H         9.52055406544900    2.09118545977082    4.31610223220406
H         9.23986880633374    2.28483725968514    2.57737195880360

