46
CSD_code = IWABEN | q = 1 | S = 0 | Stoichiometry = C23H20AuNP(1+) | MND = 2
Au        3.37496985387614    1.15331093758668    4.31005736639889
P         2.03937051017417    0.78617181136981    2.53207829496443
N         4.62650757333190    1.50660788833150    5.98495439625642
C         5.84972391198212    0.98048022882763    6.04911208074597
H         6.15884506567808    0.37885074578318    5.20799797784213
C         6.69433898295808    1.18118017709322    7.12489426445279
H         7.67475214658600    0.73350626146194    7.12838733952159
C         6.25600235643028    1.96069388355652    8.18469256663509
H         6.88936269292798    2.13710132034756    9.03988686266704
C         4.98393757258786    2.50821012554415    8.11867963746675
H         4.59722591110240    3.12094685527701    8.91673002233064
C         4.20597918136378    2.25645391229476    7.00403026843674
H         3.21169415979293    2.66776486755724    6.91938554720219
C         0.42149723542896    1.58315926632141    2.68030768750891
C        -0.14447079340586    1.68111775777527    3.94901617854955
H         0.39990504182653    1.29884609980111    4.80452929343913
C        -1.39133505023720    2.25646665083880    4.10456095797374
H        -1.83327031493299    2.32884685166287    5.08659221690521
C        -2.07001269079423    2.74370919150446    2.99771847998561
H        -3.04092862021180    3.19803771471884    3.12006741139758
C        -1.50448280660120    2.65291759397775    1.73576807093873
H        -2.03422988381407    3.03571554640358    0.87700150160602
C        -0.25942708263110    2.07253517042217    1.57006701651593
H         0.18559639821050    2.00149898562703    0.58746794559903
C         1.69130850779204   -0.96757329678225    2.25154482061594
C         0.40307114909246   -1.48917255555249    2.24377326685281
H        -0.44750950437359   -0.83897935554063    2.39248590181335
C         0.22008372731557   -2.84667000243923    2.04117755776619
H        -0.77891994336155   -3.25492916450002    2.03255184166651
C         1.31133693251832   -3.67760997247091    1.84946408177344
H         1.16125742448508   -4.73414932839347    1.69058716842105
C         2.59787501830441   -3.15760971310304    1.86336720655949
H         3.44676527967300   -3.80727764146755    1.71443909952305
C         2.79065991765278   -1.80626342179539    2.07121247888415
H         3.78826230362086   -1.38406042959813    2.08637629098664
C         2.72361534508973    1.38754905901184    0.96879073303156
C         2.52507478745257    0.71549927557682   -0.23360229047271
H         1.97321919315005   -0.21426258195042   -0.25013868273579
C         3.04223423601404    1.24440927231507   -1.40285052505356
H         2.89197862827291    0.72485609406680   -2.33683978437040
C         3.74891206109181    2.43624224874335   -1.37707714415253
H         4.14900068169986    2.84344646142065   -2.29261324072544
C         3.94658771333399    3.10607342667130   -0.17912648299830
H         4.49836580101956    4.03340407348182   -0.16125069523945
C         3.43890418185853    2.58203597847707    0.99445082762889
H         3.58946520666949    3.09101172974185    1.93899418488845

