62
CSD_code = IWACOZ | q = 0 | S = 0 | Stoichiometry = C21H37NP2Pt | MND = 4
Pt        5.65427398280287    2.78664720968628    2.71638136412557
P         7.73379957643372    2.09769480911420    3.45079169559794
P         6.72720471947655    4.79430998902760    2.14146635563428
N         2.81923539683023    3.90378614801218    2.10970841811992
C         3.84072684362338    3.42679576295817    2.33649225064435
C         4.79564708389557    0.95675551982454    2.92225482885616
C         4.79864685447575    0.09668488006580    1.82222816678994
H         5.17735471790597    0.44019353414083    0.86281216864204
C         4.31750410279437   -1.19867392450848    1.91559833872712
H         4.33161353164126   -1.84229290682846    1.04617454562724
C         3.81942761297220   -1.66950630145187    3.11768983561939
H         3.44550808135636   -2.68075272867672    3.19436840806837
C         3.79431778594297   -0.82956101892034    4.21650437727341
H         3.39501724195484   -1.18372228415603    5.15747974757326
C         4.27386389517930    0.46649379465432    4.11833592013899
H         4.22265063034872    1.10492647782350    4.99310095600161
C         8.89824157935161    3.55333079446820    3.42075353688746
H         8.78382707659406    4.06643860297321    4.37920148723187
H         9.93406528869771    3.20843284120522    3.34433455872495
C         8.56574771968215    4.52264195737277    2.28672510968950
H         8.89817848898678    4.09819076465659    1.33583846295210
H         9.08012526741950    5.47761670549422    2.42940271454624
C         8.80225362373321    0.71341409010037    2.81468892302673
H         9.78410212559966    0.77351263648576    3.30204623016209
C         8.97110494214257    0.90427838238429    1.30971475211474
H         9.55697600619642    0.09136612307280    0.88363673644980
H         9.48052619220270    1.84070892669078    1.08571572547829
H         7.99403734248465    0.91103127608191    0.82759210920808
C         8.15573630972325   -0.63612811750669    3.10982353781264
H         8.70453822954071   -1.43075480072618    2.60637006533985
H         7.12689774665769   -0.65088861005338    2.75210346913594
H         8.15164881554344   -0.85341195663671    4.17554190858383
C         7.55768894338570    1.74285473420248    5.26346531037467
H         6.99442271578648    0.80097504878983    5.29532587457605
C         6.67057533666529    2.83382075450006    5.86596406558106
H         6.27525534790193    2.51929973823294    6.83011218877444
H         5.82262828360098    3.04030494479332    5.19483568322121
H         7.22678493504886    3.75748534352195    6.01784981775333
C         8.86005859263052    1.57747228495698    6.03854553206894
H         8.63834528571045    1.36551794337019    7.08358551907053
H         9.46116089945777    2.48419443210517    6.00186782235211
H         9.45356836603832    0.75390381293469    5.64805343716881
C         6.47344501060856    5.00804596092492    0.31438838829859
H         5.42978818687372    5.33668081282299    0.22873709001642
C         6.57245513211906    3.62742070162798   -0.33503039679702
H         6.17382705739724    3.64969610763220   -1.34749342538538
H         5.98258692661544    2.90475725191957    0.24921734825360
H         7.60500177245840    3.28455850297315   -0.38609257995495
C         7.38286646553153    6.02552267225887   -0.36539495729427
H         7.13486745772638    6.08621595207027   -1.42405822195376
H         8.42990586074357    5.73964590325775   -0.28328806108868
H         7.26055773911821    7.01687862109766    0.06485362486188
C         6.49361551941540    6.50817129892870    2.82994692758669
H         7.25933664786193    7.17308741601275    2.41071607069342
C         5.09882227702791    7.01208142351532    2.47111733938413
H         4.86104441965097    7.90366359649488    3.04896617431621
H         4.35212852065391    6.24946512551936    2.69400774869408
H         5.02507455683521    7.26517181186326    1.41607061346843
C         6.65802852260258    6.43589776336598    4.34561636335413
H         6.49692237656368    7.41469131906834    4.79466634597669
H         7.65739321555607    6.09972127706428    4.61946042710119
H         5.92544481621920    5.74433886738119    4.76101122475890

