61
CSD_code = IWACUF | q = 0 | S = 0 | Stoichiometry = C20H37ClP2Pt | MND = 4
Pt        1.96643294516292    2.82066644845305   10.15239566966423
Cl        4.04867087600066    3.60491302392183   10.74189112297521
P         0.95063610436789    4.87965546555302   10.68025789338298
P        -0.05936011640134    2.15055789098755    9.38855569103481
C         2.84170567662181    1.00942532853199    9.93654602325942
C         3.37657941527503    0.56354176132668    8.73117614677005
H         3.31417328250028    1.18276735580456    7.84396119077969
C         4.01718607641648   -0.66187971007408    8.64138748461218
H         4.42979049595298   -0.98341333423880    7.69444693415314
C         4.13587504756858   -1.47060668743355    9.75748607565977
H         4.63618137557190   -2.42625539807436    9.68770791335548
C         3.61960633350321   -1.03975920899409   10.96686992725687
H         3.71637698104385   -1.65863704650247   11.84869121124716
C         2.98067893117691    0.18650629852987   11.05283694490138
H         2.59361317065682    0.50483198894838   12.01608834368456
C        -0.88850691134525    4.59267408816344   10.55709934745306
H        -1.20848940714835    4.18589322037541   11.51908663986219
H        -1.41405358220843    5.53868855458707   10.39850621705842
C        -1.22806257105980    3.60028777956027    9.44429756007848
H        -1.13976796485211    4.10022053980316    8.47655149628947
H        -2.25738995349725    3.24188967899000    9.54582107065740
C         1.18107045373178    6.55173485473290    9.89383242866826
H         0.42218909055638    7.24435387823517   10.27933200269405
C         1.00810534991803    6.39886286125925    8.38524293369314
H         1.18667334629382    7.34808807137667    7.88215674912264
H         0.00142016507104    6.06790092097086    8.13408107262221
H         1.72383064665790    5.67047672251899    8.00621000848637
C         2.58375328793379    7.05894960292580   10.21810142097287
H         2.84497072661652    7.89276981710820    9.56827841948915
H         3.31273995282609    6.26247482491774   10.06752738589660
H         2.65625561278548    7.39898420191763   11.24864394798374
C         1.21718865086164    5.20225617641291   12.48704294883829
H         2.26413748414566    5.52530511804072   12.54080829730319
C         1.11532335704192    3.86880077970846   13.22610074533580
H         1.50483208197330    3.96157660826931   14.23812690271000
H         1.71173631775919    3.11439315175805   12.69781481911935
H         0.08419764130466    3.52435359187792   13.29046739939070
C         0.32015019202075    6.26769897928982   13.10695348212054
H         0.57935888705427    6.39676238646628   14.15690338290527
H        -0.72852971163727    5.98069282779119   13.05377108906901
H         0.44121642301195    7.22838693109989   12.61175589137277
C         0.02026273889410    1.72685597998173    7.58442447781056
H         0.59293733862970    0.79134082203146    7.55948637286706
C         0.85221853146895    2.80223248169174    6.88712138367907
H         1.20290037910117    2.45024682451441    5.91906597514079
H         1.72313318504746    3.05027877701057    7.50531045339286
H         0.27252402336367    3.70894795810290    6.72522014743470
C        -1.32765716455548    1.51562740711421    6.90396883356820
H        -1.17221530809636    1.26663516271219    5.85534911885842
H        -1.93714074953851    2.41589186071000    6.94772311452304
H        -1.88102665517095    0.70065447719214    7.36446049577169
C        -1.04801507119272    0.77696212284326   10.15874812492241
H        -2.06668633315518    0.80432346050419    9.75129475685647
C        -1.09083154999428    1.03057578385021   11.66263526701371
H        -1.57649409764089    0.20432126169375   12.17876413032400
H        -1.63927145358781    1.94258241163610   11.89125762175111
H        -0.07349645811134    1.12672917034262   12.04193890817359
C        -0.40406647063264   -0.57321509929358    9.86306191955153
H        -0.89615116024019   -1.35502599190421   10.43937821294927
H         0.64951146943230   -0.55405766488912   10.13735460351425
H        -0.48233135528689   -0.83149755073136    8.80982384998107

