51
CSD_code = IWADOZ | q = 0 | S = 0 | Stoichiometry = C14H24N10S2Zn | MND = 4
Zn        8.28197404487463    9.41963872589786   -0.22180298449021
N        10.02850693895198    9.06188909004788    0.43612317822958
N         8.05330479832618    9.86439591040421   -1.97414881258797
N         7.65507859815993    7.54287955039875    0.15066788661975
N         7.62627039658026    7.34336512368524    1.48530336851056
N         8.73735646093439    5.71347504210633    0.56802270602829
N         9.52366158228383    4.57746758353906    0.47746808912564
H         9.65877117237422    4.33585253619666   -0.50055273169508
H        10.43762580053182    4.77621236123835    0.89538656183449
N         7.38901548988748   10.59569015388548    1.07031582382440
N         6.14627721069411   10.95121399980723    0.71599732482178
N         6.54012503717252   11.70593096334650    2.71802342567754
N         6.31865074037237   12.28875079013229    3.95684945280264
H         6.05090137151619   13.26504981683125    3.85257672033575
H         7.15653693047247   12.21716442251802    4.52647705339785
S        11.69127545496024    7.03902114788234    1.30357631665630
S         7.53090081268148   10.55361776466409   -4.58448205897526
C        10.74526050049181    8.20045539422739    0.79401974408309
C         7.82240360313137   10.17504957336551   -3.08900309117020
C         8.27108532049948    6.24142090884833    1.73917003455541
C         8.52445446819607    5.61595088549329    3.05962051292872
H         9.41848417984140    6.07408749466147    3.49382486081177
H         8.73573725334623    4.55658989258982    2.89803748730357
C         7.34009354772690    5.79001404353311    4.00461224850531
H         7.57316175084172    5.36337350580320    4.97655686282023
H         6.46198070822627    5.28946986448137    3.60497983807864
H         7.10603144608274    6.84322190353161    4.12558637347248
C         8.33532333025275    6.56497708326338   -0.40538518173912
C         8.57968661799556    6.37739491612836   -1.85450928900848
H         9.59456255012295    5.99917261420715   -2.00997527508579
H         8.50086296060649    7.35204299983742   -2.33792056041187
C         7.55332590831954    5.41814373195440   -2.46438593266204
H         7.75363958161619    5.29186640324704   -3.52453847668175
H         6.55323932520613    5.82701555674314   -2.34794110830890
H         7.58694032682872    4.44135525054510   -1.98391103108759
C         5.62188778195871   11.61459211970707    1.70283783149580
C         4.26779108773837   12.21405543016064    1.77059322572076
H         3.81251582033542   11.93747200465261    2.72626593693943
H         4.36025310278868   13.30575328027637    1.75309467812917
C         3.40517018483999   11.74933843566510    0.60410454963825
H         2.42585627765309   12.21777986938026    0.65100490324958
H         3.28539551073471   10.67076612608012    0.63366770436040
H         3.88158493438492   12.00712955978071   -0.33656875932529
C         7.64217459608033   11.04936979924251    2.27636600616647
C         8.88085126926385   10.82171168533838    3.05572482783561
H         9.12612524728005   11.70538896573120    3.65326472971340
H         9.69058631906494   10.64475397411254    2.34759913277558
C         8.72149535593651    9.58933276161197    3.95094451735430
H         9.65317653797875    9.38817380837215    4.47210022089907
H         8.47071506920463    8.73290342423330    3.33044566731607
H         7.93151468462430    9.73286175027598    4.68621549184297

