70
CSD_code = IWAFOB | q = 0 | S = 0 | Stoichiometry = C27H40ClPPd | MND = 7
Pd        1.54545885596997   16.76926623873142    7.09082137301767
Cl        0.52496325588588   16.52477872398774    5.06476199279315
P         1.80799247181974   14.54562232778182    7.27704788899503
C         1.57050392043066   18.97058894739965    7.08930557892478
H         0.89450585855007   19.61753198094891    6.54231293773068
C         1.36162749452744   18.49678981635660    8.39823020620835
H         0.45458505102036   18.61283691531954    8.98363626880820
C         2.51297269215682   17.76655285880560    8.78627153819943
H         2.69302129022842   17.38738463290591    9.78425602030312
C         3.58392235714510   18.10557848604596    7.85781922410129
C         4.94921456927111   17.85459829878005    7.86185082907290
H         5.40937071318261   17.31060352632817    8.67615594056977
C         5.71272731094980   18.32701013182633    6.80537374924007
H         6.77878796947415   18.15143696053057    6.80070297125919
C         5.13156638421106   19.02358051939454    5.75215314438632
H         5.75441808242130   19.37451134385323    4.94239291344250
C         3.77004103394885   19.28410633546355    5.72509897709429
H         3.32631647881794   19.82697699529443    4.90249510088012
C         2.98947871086097   18.83965747355315    6.78450679733978
C         2.55265839185535   14.00131838712961    8.89951377553025
H         3.44662340504828   14.64158961774597    8.97135617587631
C         1.61406910362896   14.37937312572590   10.04546330750176
H         0.75890207514928   13.70090465724810   10.05433553960476
H         1.23715146624912   15.39874992560862    9.89521647847087
C         2.34441705598479   14.25943456593979   11.37956368993261
H         3.19211899122952   14.94847538555933   11.39771259438240
H         1.67524579340382   14.53015742328246   12.19887974498252
C         2.84634600481520   12.83007766289681   11.56822736577516
H         3.39938445201835   12.74953528681079   12.50593695002017
H         1.99109763189825   12.15271587555364   11.62687650272890
C         3.74061329326970   12.41383372162844   10.40336212859371
H         4.06415192864272   11.37952735543432   10.53721876957299
H         4.63360160578257   13.04327558617095   10.39016042621335
C         3.00532752843378   12.55273861741821    9.06907164611272
H         2.14661110100840   11.88206183233994    9.06255515273964
H         3.67382673588385   12.25135315230718    8.26154388045281
C         0.17884332891168   13.72392729443141    6.95812201108616
H         0.04406931327146   13.89200329516499    5.88064447038327
C         0.04875630978174   12.23307528341232    7.24924458052742
H         0.86265034650173   11.67546714503318    6.78049554780472
H         0.08764881366677   12.05667848300895    8.32586557845502
C        -1.29944845168353   11.74324711713062    6.72091246480179
H        -1.33531601213911   11.88421193661117    5.63879010628703
H        -1.41224111862505   10.67609483846502    6.92500826558596
C        -2.44257476724868   12.51970924484851    7.37044638357452
H        -2.44765797471144   12.32178397388733    8.44546773230260
H        -3.39669890174004   12.17738548474241    6.96567382412486
C        -2.28784707765648   14.02078617590452    7.13407712006792
H        -2.34956496607450   14.23283917687606    6.06532128033533
H        -3.09721197102429   14.55892676352340    7.63118255186542
C        -0.93937190166863   14.50210956498337    7.66124332695665
H        -0.89909763996727   14.34391442194269    8.74072389056992
H        -0.81741252741192   15.58288292289336    7.46424245159854
C         3.03520550879636   13.95634904112436    6.00823788820634
H         3.55231785965243   13.06467566824747    6.38204201335209
C         4.04147350791200   15.10648062443989    5.86604346227598
H         3.49522862136336   16.01262865989533    5.54418140500364
H         4.50985405645760   15.31513739509260    6.83425103666564
C         5.11360828926114   14.78698214819155    4.83141700297199
H         5.79495850031127   15.63486040694535    4.74074202658535
H         5.69467994383239   13.92057870300065    5.15932389736761
C         4.46288196087219   14.48553673773716    3.48624496287540
H         3.91595358562574   15.36682203487038    3.14663094156140
H         5.22727870361155   14.25155259509905    2.74268258214823
C         3.49307068351272   13.31734925065801    3.62633936704999
H         4.04266129607679   12.42443318319767    3.93801483560592
H         3.02653701349634   13.10347356730727    2.66320880257257
C         2.40753916196580   13.63637640658764    4.65275851189049
H         1.73513626861207   12.78063298294088    4.74094360774372
H         1.82996917128060   14.49935277968820    4.31438848893481

