28
CSD_code = IWAHIY | q = 0 | S = 0 | Stoichiometry = C6H6CuF6N3O4S2 | MND = 3
Cu       -5.13482636841169   -6.59761785712381    8.17505328358799
C        -1.00231275303401   -6.15065620148616    7.50869432388120
F         0.25335492276493   -6.06290894248581    7.08448292163935
F        -0.98757858072567   -6.13355341845764    8.84430044260234
F        -1.65215469871577   -5.05694691570942    7.10862840883647
S        -1.90109163438654   -7.67546381934635    6.87359403011722
O        -2.02817330094118   -7.46143749293074    5.46784402136418
O        -1.19580843901531   -8.81964319828394    7.33947053525810
N        -3.30054193688709   -7.51662228637478    7.60030719935025
S        -3.58102436404291   -8.50482277682105    8.78776406973753
O        -2.61604115364522   -8.47298276604237    9.83586202060849
O        -4.95514204848326   -8.37451277980566    9.19247284961105
C        -3.52301153077335  -10.21993222889564    7.99346800752261
F        -4.62050295740845  -10.89752662120143    8.34159371247995
F        -2.48243495006629  -10.95732340653156    8.32942036158948
F        -3.56429896788062  -10.09315518820004    6.66019448087439
N        -5.91177923649646   -7.18047213677403    6.41746450115968
C        -5.42797292722767   -7.60403643797760    5.46012844205242
C        -4.83528741880257   -8.11461519405998    4.27757996487689
H        -3.75517866794910   -7.95551633826894    4.36567246554681
H        -5.21791436877390   -7.59123891718459    3.40237524295791
H        -5.03455583368974   -9.18157110845673    4.19008927831527
N        -4.42643506480340   -5.51012648344307    9.70456554593319
C        -3.62841598575812   -5.68707671069561   10.51750859893889
C        -2.65210766523918   -5.88155392475087   11.52850258844745
H        -2.22508884266164   -6.87621982038603   11.37919253039420
H        -3.11439504800299   -5.81694371686421   12.51273234740136
H        -1.86658017895229   -5.13282331143902   11.43593782489991

