60
CSD_code = IWAMAU | q = 0 | S = 0 | Stoichiometry = C25H24N4NiO6 | MND = 4
Ni       11.38365850099054    7.61988618572599    4.36894811809558
N        11.01992824984882    5.90285899507350    4.96036520342187
N         9.67143891063261    7.81333183490392    3.67202580000263
N        11.68982200296462    9.38933084213991    3.88595939779114
N        13.12385038175543    7.37209305412943    4.96805284381327
O        12.23685870796701    3.94383317591030    5.12006154422363
O        14.53683523044958    5.54044621064100    4.90606250810563
O         6.56328429388895    8.14000367397135    3.65546502740022
O         7.18308160770277    6.86320029969044    1.91465702233291
O        12.19785469706066   12.32972209052956    4.60112107122454
O        13.11254228568555   11.94626275394330    2.58186357670408
C         9.79379755862868    5.35835440572737    5.23376495197315
C         9.66073959231775    4.24462158447076    6.08543816278113
H        10.54634475389626    3.82536017061001    6.53243485561604
C         8.43637017031672    3.68466440802680    6.35024293743167
H         8.37410414480000    2.83310546561716    7.01108573885466
C         7.27406590677055    4.20321293919286    5.77861737899994
H         6.31659520148416    3.75088784702879    5.98526052200954
C         7.36281556076223    5.29950567043575    4.96143834944475
H         6.46403844278316    5.71778882436706    4.53408672496149
C         8.60020328730811    5.90854199742517    4.68186148867008
C         8.63884291328697    7.05112603625787    3.81900280252023
C         9.66190712932844    8.87380375193075    2.67217919808701
H         8.64621524160678    9.24850710567946    2.49077559655662
C        10.24449133112463    8.30742056609055    1.37397539880307
H         9.60360856793433    7.51643459215381    0.99129447153732
H        11.23542787283489    7.89141667503818    1.57425064021359
H        10.33201839372926    9.08770252258273    0.62230943196771
C        10.54363038879374    9.99931073247189    3.22289220914796
H        10.85656786158363   10.66282889695310    2.40969055060323
H         9.98187636329922   10.58470132420575    3.96246903193140
C        12.73924573138351   10.11376675534187    4.11124334815239
C        13.91999964456043    9.66676000065315    4.78227197653715
C        14.94346234137360   10.60188272235595    5.03530015889884
H        14.81660490034347   11.61981406643630    4.69802571071870
C        16.08791473583354   10.25147641728610    5.70008810544685
H        16.86127759459723   10.98128197886253    5.88203266211703
C        16.23472254465506    8.93924495358171    6.15199492646803
H        17.12107768696654    8.65749205960587    6.70038729798762
C        15.26515226148589    7.99986519979675    5.91048205046974
H        15.40394693325458    6.99272366923188    6.26519177659681
C        14.08762179038829    8.31415299305490    5.20200248753119
C        13.42812014753571    6.02795542135653    4.95952444857982
C        12.16713022554293    5.15078124326918    5.02719659121234
C         7.38668621920405    7.32332124868835    3.00559683331703
C         5.31728714393441    8.45309813580893    3.01661849255189
H         4.94103372940150    7.55170341601147    2.52133399287639
H         5.50354149403942    9.21307206586786    2.24948751899243
C         4.35163158453578    8.96005936320501    4.06998730231434
H         3.40494881475603    9.21285532450327    3.60174347395633
H         4.75603858687250    9.84386663041507    4.55578604181199
H         4.18180816932565    8.19702948226631    4.82486519725037
C        12.72716807849264   11.56204354637314    3.65309370253795
C        12.09305776148482   13.73308917088920    4.32883473675219
H        12.08999873182745   14.20922433818264    5.31079803263989
H        12.97324988982544   14.04922102802383    3.76019404927361
C        10.82272506672232   14.05344808853836    3.55607706708641
H        10.73807219561697   15.12878273694274    3.43050021210911
H         9.95072747164973   13.69099959981066    4.09535979578829
H        10.85353297285297   13.58922371071749    2.57322945479994

