117
CSD_code = IWARIJ | q = 1 | S = 0 | Stoichiometry = C48H62AuCl2N4(1+) | MND = 4
Au       15.61578924979056    8.35801576764787   10.91206761609673
Cl       13.53502037826487    9.25869674031456   10.78242970859243
Cl       17.67058734617487    7.40903262910174   11.01222634479607
N        15.84152204636532    9.09035200604016   13.82995059220753
N        16.50568608397731   10.70255828166715   12.56896917574393
N        15.85264285378372    7.39960893357796    8.11315828969903
N        14.26993714176582    6.36518112546058    9.18262593851071
C        16.01665755595116    9.45495401445784   12.55232772461678
C        16.21931573757926   10.11159223316448   14.65468514635014
H        16.15834059983307   10.03363082327309   15.71997659899948
C        16.63928802788359   11.12599312552406   13.86060883798117
H        17.01657144881139   12.09714993259101   14.10389422875529
C        15.33133246119547    7.83711620964228   14.29002455961918
C        16.23422782085410    6.81719831614680   14.60506842211047
C        15.71132012590035    5.62306598176829   15.08549921647557
H        16.37740559679984    4.81736030544010   15.34695339558649
C        14.34975974761203    5.46105189540838   15.25357374898420
H        13.96702555506297    4.52999546892896   15.64385972615851
C        13.47956276914905    6.49213769722697   14.95690984849980
H        12.42305995560250    6.36083603818868   15.11953712610769
C        13.95170236943120    7.70357201643132   14.47058762760093
C        17.72888459404335    7.02538983398449   14.52437143119907
H        17.94044536816127    7.85898278922835   13.84699948637664
C        18.25415697483610    7.38500912852342   15.91913460044780
H        19.32677939635699    7.55647237810835   15.87886085992546
H        18.06030686450250    6.57237443246358   16.61504333429519
H        17.77696721822534    8.28382823386795   16.30307561268240
C        18.47545127277206    5.80379954531976   13.98891788140571
H        18.06324359095416    5.48517820427362   13.03538797863792
H        18.43684155379933    4.97347671660788   14.68810077677541
H        19.51992417761500    6.06172966281939   13.83320572813115
C        13.00755181313598    8.86043341223334   14.24396434585727
H        13.48047351342657    9.58774118246704   13.57670304518392
C        12.72777933606808    9.54683948130767   15.58586360380889
H        12.27205841513819    8.84506813032958   16.28017877915378
H        12.04649588580771   10.38136510536545   15.44086295797976
H        13.64375564656780    9.92522321717004   16.03446723678772
C        11.69542224926684    8.42870001509458   13.59067996805719
H        11.14137929991367    9.30936459464435   13.27560157713432
H        11.07294098411865    7.87014856795281   14.28387039544729
H        11.88752136920631    7.81394474615543   12.71509585336584
C        16.87141921720569   11.48505968479572   11.42982829365361
C        18.18089780882436   11.38856598171577   10.94949171314953
C        18.53307670603877   12.19162608723413    9.87367092448599
H        19.53773913406351   12.15197139841883    9.48787662770342
C        17.61755140224244   13.05665621702868    9.30617664111236
H        17.91407310342909   13.68624599793738    8.48062573991821
C        16.33411929935268   13.14596548552868    9.80808656626118
H        15.64006465380593   13.84445033620933    9.37039227908980
C        15.93314494605336   12.36583459425300   10.88515566020426
C        19.21321817660904   10.52003792993727   11.62891549648821
H        18.70647316427778    9.74211371961646   12.20843762799334
C        20.03729699507597   11.38223333928028   12.59205392586049
H        19.40728387981521   11.83649756726746   13.35362941724515
H        20.54209407152914   12.17689061132143   12.04802685957936
H        20.78795511344270   10.77154019477143   13.08726409726227
C        20.13549483398922    9.81663056359034   10.63419217973232
H        20.82244183674018   10.51677459058060   10.16728776110067
H        19.55555333401316    9.32100582338755    9.86003264346566
H        20.72348808970785    9.06536190753646   11.15540670987701
C        14.56140548713481   12.54368072038489   11.49270497573555
H        14.31317745512793   11.65831416239345   12.08649943304638
C        14.58026898837944   13.76294772408498   12.42186352879058
H        14.83793552326383   14.65886949643290   11.86223913890549
H        15.30597694814143   13.64035900282201   13.22273555574749
H        13.59881543699052   13.90468905684849   12.86719537801414
C        13.46539426555480   12.71049410365173   10.44027339313129
H        13.51461407528657   11.91434840106862    9.70290842382470
H        13.54218471904860   13.66831872985084    9.93379976313176
H        12.49243590669860   12.66391777717988   10.92264069690996
C        15.21574901695184    7.28178781299822    9.26226121421329
C        15.30404008381259    6.50589315834404    7.09148699381123
H        16.09402430826471    5.87770558191913    6.67700076984280
H        14.87542342823327    7.10083597175100    6.27978305653296
C        14.25049597770996    5.71453433049015    7.87132673123518
H        13.25459444709444    5.77735944190757    7.43150933565004
H        14.51057778956593    4.65805952841851    7.98900539374445
C        16.91901678153818    8.28716054129761    7.79473093595792
C        18.21669096048428    7.78354674764628    7.69364102395346
C        19.23218957476960    8.65594023399844    7.32960280878874
H        20.24064810107071    8.27716861005357    7.25195898530655
C        18.98331058613341    9.99311656051112    7.05527711275737
C        17.68059482735876   10.46043816872665    7.15695626829613
H        17.46777006572621   11.49409981517296    6.93149506672586
C        16.63555943608097    9.62757015090741    7.52343743154131
C        18.53715518772139    6.34205604377998    7.94567172444091
H        17.81200186516866    5.87443286947388    8.60608352265978
H        18.56453885930344    5.79251714827787    7.00380628438109
H        19.51777617659711    6.25572881949600    8.40647705226633
C        20.09574323676441   10.89722191302307    6.62929610072244
H        19.82270150292796   11.94120017198397    6.75622635096542
H        20.32118884319685   10.73219434358396    5.57576661711558
H        21.00071013903001   10.68991255996651    7.19582649123382
C        15.23424116457046   10.15475228921482    7.58263215482719
H        14.80987099960651   10.04141445474239    8.57914191336465
H        14.58941828238941    9.62381802814109    6.88202081919529
H        15.21970108969718   11.21028196402828    7.32611711634638
C        13.39253046196620    5.93427577090317   10.21536867005849
C        13.87656463289441    5.13288205309474   11.24898209898357
C        12.98038637701824    4.67801862439911   12.20697488506497
H        13.35144131079903    4.04818218192947   13.00102596175105
C        11.63398201804462    5.00012946118345   12.15729798571937
C        11.18327927650486    5.80679975405061   11.11973721518320
H        10.13748320720345    6.07186179397472   11.07072698807454
C        12.03976449441909    6.28047875051170   10.13920754690564
C        15.31697381241795    4.73579420608485   11.35904506523762
H        15.80006537613226    5.31012531192439   12.15040008037984
H        15.86845442275694    4.90120399890658   10.43686668667687
H        15.39285322633901    3.68297265370038   11.62393749177791
C        10.67398919137587    4.47853576542336   13.17840985183038
H         9.96778873022473    5.25133246615862   13.47376899222019
H        11.19711028862257    4.11384831650316   14.05810791382477
H        10.10116541889562    3.65233408708351   12.75749660389532
C        11.50068668333948    7.14007611235425    9.03687690184837
H        11.12547820790169    6.52160585812695    8.22044863593489
H        12.25696135673366    7.81794266196964    8.64941752016598
H        10.66987980706657    7.73558278683285    9.40633285096983

