51
CSD_code = IWASUW | q = 1 | S = 0 | Stoichiometry = C16H28AuCl2N4(1+) | MND = 4
Au       11.95657647708467    5.67740857616451   10.25172604023503
Cl       12.13593327892667    3.48811878464516    9.58877688987553
Cl       11.78110197699939    7.86062135283837   10.91932204110380
N         9.18840634992449    6.22259133481458    9.18063069005898
N         9.13092387889210    4.84626944091255   10.83813711481963
N        14.80805389704666    6.50780661646033    9.72386265502539
N        14.68608345670108    5.13881171086296   11.38389468195689
C         9.95331038235892    5.57548627633356   10.07002954003703
C         7.88083709883889    5.89669449413085    9.38379155882359
H         7.08888373567537    6.29748487136497    8.78576604844986
C         7.84371750838173    5.03190301723504   10.42980689680026
H         7.01384918113870    4.54748604530067   10.90128372988177
C         9.67101292428569    7.08437721657597    8.12761126072083
H        10.43393376073220    7.74571836946315    8.54587645866748
H         8.83322716083966    7.69091184998690    7.77856626587721
C        10.24938565434261    6.27188065536582    6.96593479272595
H        10.72366632740710    6.96427628678706    6.26949993062751
H        11.02136743233572    5.60043415696098    7.35006242596875
C         9.19328497080404    5.45329828640606    6.22597670440898
H         8.42713740939558    6.12301189033021    5.83016818744115
H         8.71079219188059    4.75910248382607    6.91827846715623
C         9.81560550939056    4.66367803925904    5.08121277767185
H        10.56812779948975    3.97424001150824    5.45709706131932
H        10.28806369056992    5.33301817838387    4.36657653813096
H         9.05526649451452    4.08883053751958    4.56045849733351
C         9.53657287143042    3.99812398868698   11.92678018902947
H         9.98905741451196    4.59114724677360   12.72307074364406
H        10.26082149752234    3.26165876895988   11.57659197864260
H         8.66510163617209    3.48125011144927   12.32219854005908
C        13.95651918385520    5.78304561728276   10.46170290908510
C        16.07874692532487    6.31613799449714   10.17741659662416
H        16.92609125125878    6.79665926774295    9.73403794587420
C        16.00226964187399    5.45615918802695   11.22524489779339
H        16.77133706956205    5.05746174066670   11.85389089068094
C        14.45002264792507    7.32063361903102    8.58545590660480
H        15.29081071931993    7.98140020478980    8.36669293001203
H        13.58372170957203    7.93029154781982    8.85485863444084
C        14.13159584489685    6.45468592360817    7.36399234774969
H        13.33758629312366    5.75024604665390    7.62480481072737
H        13.75560313995403    7.10524982037809    6.57356293050932
C        15.34289878270961    5.67894544299744    6.85026069755966
H        15.73414165254509    5.03646001054884    7.64285796706019
H        16.12931106202326    6.38073948502787    6.56546103710456
C        14.97223908338098    4.81770044728190    5.64945153120876
H        14.59194178030972    5.43392118063126    4.83854733554273
H        14.20701613154690    4.09382955181704    5.92055885597592
H        15.84201881846958    4.27617900242401    5.28887064177909
C        14.16739638720220    4.24913908748003   12.38810252600080
H        14.99484259537254    3.82158267847177   12.94980314374632
H        13.60096421111929    3.44456153516916   11.91760007609291
H        13.51412310105651    4.78973000834309   13.07473668133743

