92
CSD_code = IWASEG | q = 1 | S = 0 | Stoichiometry = C35H50AuCl2N4(1+) | MND = 4
Au       10.42967161731547    9.55509423085119   11.93207544052781
Cl        9.31988787475694   10.16493576353297   13.82109486752753
Cl       11.61833678244030    9.01607424994419   10.07059003773355
N         8.54425881821458    7.43312265039992   11.04618899897248
N         9.56349527987014    6.79567705388065   12.83390181441545
C         9.48158399395404    7.78623137431261   11.93678582087100
C         8.03084040266788    6.21407211614937   11.38256002289758
H         7.26105811448317    5.74004280422586   10.81059553566108
C         8.67575984215309    5.81120723791766   12.50624953961797
H         8.57626248686910    4.91693951162761   13.08503300518713
C         8.19906786277940    8.21913973835206    9.90585065419023
C         7.37644006769662    9.33583439297806   10.08503643510994
C         7.10904678076294   10.12348901029607    8.97252036753312
H         6.46869721384501   10.98514624862249    9.06962648102174
C         7.63722480741669    9.80585270062616    7.73548815724079
H         7.42162063913366   10.43255876210588    6.88383504456541
C         8.41115981652302    8.67301931521815    7.57624132014370
H         8.78493448342319    8.42049866576986    6.59794040570918
C         8.70864038629936    7.85199796558757    8.65640943446999
C         6.69271985828475    9.61159390846222   11.40496156001278
H         7.23209062486471    9.10655498518522   12.21225414345276
C         5.27596201369647    9.02849254903113   11.34344245311266
H         4.76265151810638    9.19649213015563   12.28668260794447
H         4.70556806207777    9.50282680216276   10.54883348117352
H         5.30488810738982    7.95779693040068   11.15170891233169
C         6.63711463612217   11.09763746033979   11.75684044912991
H         6.25277591401491   11.21489095836424   12.76669308170164
H         7.63088373971756   11.54180714249608   11.72489366399343
H         5.98375768398965   11.64517366431382   11.08361534470423
C         9.48600219375684    6.57288933062853    8.45167575446473
H         9.84557265599815    6.20777871979892    9.41952635587550
C         8.54895559536025    5.51823755010868    7.85092456223176
H         9.07553023987464    4.57419830937834    7.73712046794394
H         7.67783023475168    5.35368670451456    8.48112141022399
H         8.20134401838894    5.83869098483504    6.87216188979773
C        10.70645453629175    6.75558656703880    7.54883599290024
H        11.29446213833292    5.84107845827204    7.54692954537953
H        10.41543450187467    6.96637187134793    6.52414374564292
H        11.33346303217960    7.56668726417752    7.90854463876957
C        10.50090526378690    6.75158362124250   13.90956896894225
C        10.05683193443748    6.96258133020446   15.21708215382626
C        11.00791988471549    6.93325484956092   16.23004936784067
H        10.70196849224773    7.09010679914433   17.25111770004586
C        12.33831363912014    6.69319793528063   15.94887832099783
H        13.06107856815107    6.67377233662148   16.75039930420894
C        12.74726925133404    6.44891796279520   14.65049031030431
H        13.78305671593354    6.22633082775069   14.45546695884216
C        11.83801724785354    6.47244397525780   13.60202187298415
C         8.59364138823268    7.13590055549508   15.54924512500714
H         8.04361631004604    7.38623193532768   14.63590274544157
C         8.05053314435878    5.81297027235662   16.10248486647692
H         8.20127061586544    4.99470529993246   15.40188129006836
H         8.55582681692646    5.55832137277528   17.03068264717472
H         6.98617232482247    5.90280809161612   16.30354848074078
C         8.34507632649001    8.25775690395536   16.55808900052335
H         8.80454035466268    9.18410989107895   16.22467065745899
H         7.27519176744628    8.42337963229774   16.65774794768988
H         8.73649964183130    8.00519012470122   17.53908236415896
C        12.25914963371345    6.08869307139595   12.20110592582015
H        11.57914142441300    6.54652934809600   11.47570633218290
C        12.15324911076088    4.56528127879732   12.06196666178018
H        11.13448743303586    4.22465420653974   12.23683230455237
H        12.45108757349138    4.26172420025579   11.06154755223927
H        12.80558161775224    4.07540679990941   12.78084167924421
C        13.66952988589545    6.55293552905775   11.84381138465498
H        13.83927125395642    6.40658326772322   10.78004843954665
H        13.79134952538372    7.61155445473606   12.06162621988221
H        14.42490172104878    5.98950953732644   12.38437006510264
C        11.30228950822559   11.36815879557062   11.89256327957913
N        12.14848324389559   11.88805121905809   12.79085753993112
C        12.50716282205451   13.14539227399274   12.40292702438995
H        13.17942746262455   13.75126932841993   12.97416624784525
C        11.85606315178448   13.40423399770690   11.24083759132099
H        11.86242988082236   14.27582133764745   10.61969057100053
N        11.11769780056601   12.29722235194318   10.94234277180704
C        12.67676520590924   11.21453672955075   13.95245210665850
H        11.92634266002679   10.51371552536519   14.32547139172214
H        12.86682986670877   11.96382340434394   14.72407762776504
C        13.96916143469730   10.46812947761238   13.61504142396469
H        13.77129166164044    9.76702474840510   12.79992909144546
H        14.72160910880254   11.17943324810436   13.26751610455531
C        14.50018036502103    9.71029333317420   14.82927958762640
H        13.74728206334874    8.99048014097080   15.15802886793828
H        14.66976331996847   10.41386324519650   15.64653513716150
C        15.80119115458074    8.98502507215802   14.50986708479146
H        16.15160123276045    8.43855356841173   15.38087401720962
H        15.65862832269498    8.28060718528793   13.69418138250505
H        16.57298596573911    9.69293493361165   14.21828116914615
C        10.28978929429811   12.15191495420621    9.77443923461022
H        10.29558149356480   13.08428584203031    9.21470784472050
H        10.66945739181836   11.34891347096205    9.14050390176392
H         9.26405814505519   11.90947432171768   10.05642890858032

