39
CSD_code = IWAXEK | q = 0 | S = 0 | Stoichiometry = C10H20MoN2O6 | MND = 6
C         5.41941082175940   10.42588027050674    5.56490552500398
C         2.36776687513091   11.27200918335112    1.86189866659875
H         1.32017704312048   11.29534682031403    2.22446312963483
C         2.87417020527095    9.82840265501864    1.77849876620043
C         6.70717548274210   10.38145038149098    4.73603187535406
H         7.22674316912333    9.41223594283098    4.87785587587440
N         5.41797812935314   10.13072714175638    6.87133074405916
C         6.55573154684384    9.69052380223535    7.64069311154179
H         7.36454512651180    9.36137255149126    6.99680206134837
H         6.25024170591261    8.85470933971134    8.27421710355977
H         6.91811168464753   10.49470100154893    8.28708810302362
N         2.18069882436144    8.88019448010490    1.13513912443026
C         7.62059240537160   11.55868846458366    5.11568747238816
H         7.09513410407131   12.47272860936097    4.82454274912861
H         8.53949393791865   11.48915363484011    4.53736203753460
H         7.85436053357322   11.58258804737082    6.17589691321639
C         4.19771786002312   10.29086782158602    7.63662523624036
H         3.84935922903377    9.32281415860936    8.00292196988426
H         3.44062844000359   10.72903262060406    6.99058856186609
H         4.37932531260858   10.95066773453799    8.48637590447214
C         2.49321250164260   11.95597728867995    0.49048884203011
H         3.56158981639747   12.01505471906260    0.26366747079465
H         2.09956808714173   12.96737407413323    0.56659230092159
H         1.97272348403990   11.41706174573745   -0.29558669070381
C         0.89252487234426    9.05146232793311    0.50946612470083
H         0.40992772398879    9.96439279554419    0.84228075726474
H         0.25715929809107    8.20310999187238    0.77379660959560
H         0.99333485739799    9.07684481406989   -0.57913200670968
C         2.75016002697282    7.55537681900237    0.99043289322862
H         3.75901413101150    7.56756654488938    1.39613438345323
H         2.78412713964194    7.28191512861396   -0.06524973723864
H         2.14798575260027    6.82208538894996    1.53110584012261
Mo        5.00738633861374   11.66828997044152    2.85032180074831
O         5.40914874241305   13.04111019118789    3.67282294431968
O         3.17344134206482   11.90617120396384    2.77908542515645
O         4.37836208215912   10.73813512690433    4.98289653897767
O         3.94413580733486    9.56751357149471    2.33264942121884
O         5.41635325984766   11.74783240399313    1.25379695478294
O         6.31818229891211   10.49303123167532    3.42120519597493

