38
CSD_code = IWAYOV | q = 0 | S = 0 | Stoichiometry = C17H14Cl2N4Zn | MND = 5
Zn        1.72115192980222    0.19176077151621    1.67781641680711
Cl       -0.06092088465582    0.18559101258546    2.97684079249865
Cl        3.83320238592963   -0.24439770578731    2.38960020221968
N         1.81654523806634    2.30813750177731    1.16900595310848
N         2.66580443039891    0.31609035782181   -0.29457012908877
N         3.05253600205477   -0.84926513766670   -0.77302181299600
N         1.47129237629323   -1.73266087844027    0.66405536328073
C         2.66766303040553    2.58399584611525    0.17248668719368
C         3.19586189969861    1.44836695942015   -0.55156078495479
H         4.03454344895100    1.59404632040480   -1.22948812109955
C         2.74752196500510   -3.25141396140134   -0.66706928135527
H         3.53044351009397   -3.40472743192847   -1.39220851929881
C         2.41627793256123   -1.96057426540920   -0.24738055542506
C         6.68934566794357   -1.20758624064594   -2.81534550081442
H         7.62972610306914   -1.29683765033758   -3.33808178032725
C         4.29060186014084   -1.13891744743338   -2.86283894954468
H         3.35601133422059   -1.17131572735079   -3.40321975673393
C         1.30175461414404    3.29421907444020    1.88047674948611
H         0.61658038777683    2.99944770471284    2.66358505185853
C         4.28804109203391   -0.98682763387352   -1.48431397222034
C         5.47358971116412   -0.93335747096439   -0.76324021622173
H         5.43046969693876   -0.80333811536804    0.30940077292607
C         0.80988380024270   -2.75841335441292    1.18234866777219
H         0.05903142061346   -2.50053466139748    1.91619145838660
C         3.04344450985601    3.89590766642587   -0.11988438945741
H         3.73967033967591    4.08912353481022   -0.92141398122052
C         5.50094419598349   -1.25303056463384   -3.52605582297341
H         5.51460455654202   -1.37556669786217   -4.59851357194330
C         6.67609605299899   -1.04666626279370   -1.43883925316926
H         7.60318307152103   -1.01023499642075   -0.88791833374752
C         1.61449103404559    4.62551340100090    1.64712919305259
H         1.17503453976967    5.40136931602881    2.25273310239336
C         2.50864607396037    4.92744272881513    0.63002795692019
H         2.78397479723241    5.95140823812427    0.42532719218416
C         2.05738938569641   -4.31319631307549   -0.11864643309513
H         2.29426737803796   -5.32317187153168   -0.41756816635500
C         1.06115409502620   -4.06807798902745    0.81889612500316
H         0.50304101675472   -4.87500805623486    1.26385764694244

