53
CSD_code = IWAZUB | q = 0 | S = 0 | Stoichiometry = C25H21O5PW | MND = 6
W         0.77041730331021    1.70254663097496    9.23187125701197
P        -0.02954069975245    0.22509643447466   11.04187839559260
O        -2.07161535701480    2.10941211189639    7.96294177045642
O         1.27826443383270   -0.70383203990066    7.28445733832896
O         3.71898338318156    1.13825022073485   10.13743963796289
O         0.56017681996835    4.12345401038908   11.22446876763359
O         1.86576184286447    3.57838023408325    6.98208824938597
C         0.76187260587287    0.15293597728563   12.64718752640161
C         1.94782138646692    0.13382673527994   13.56018170288907
C         3.27624623491260   -0.52288959282316   13.36637547500077
H         3.50309414723250   -0.92014013286513   12.38797599570193
H         3.68398021031702   -1.10291318144465   14.18101816720100
C         3.18748281007609    0.96728483871304   13.52380416360697
H         3.52581364770339    1.40435645338993   14.45137746008196
H         3.36065812585771    1.59076421306187   12.66090692258473
C         0.94369263225640   -0.02140941306365   14.70485462964581
C         0.97675926747585    0.60263965134692   16.06585548307437
H         1.87406212842435    1.12821112460552   16.35468260124431
H         0.07027084731434    1.04998340850489   16.44378809109263
C         1.03928932210842   -0.88818954645187   15.92256013775019
H         1.97919463407217   -1.38305848974870   16.11518219528651
H         0.17479300597282   -1.47028148463630   16.20418683810580
C        -0.12109450002571    0.03054296960413   13.66800961713232
C        -1.54679371296395   -0.02002295352550   13.36355351715451
C        -2.62822155904468    0.19375267082185   14.38296648484268
H        -2.32663519552389    0.42427286688554   15.39341829599175
H        -3.53149628428072    0.69788995294435   14.07545053952534
C        -2.37645938401633   -1.18398364671107   13.85974178582513
H        -3.08965590231017   -1.61729318969421   13.17577308704953
H        -1.89574146418913   -1.90637077498689   14.50133744807795
C        -1.64825630667965    0.47359691615650   11.92681417650552
C        -2.38058798706116    1.75931264541590   11.63394259491702
H        -2.87240779630240    2.26192210498809   12.45350905401038
H        -1.95436473989239    2.43568925223327   10.90407885788693
C        -2.93146028583354    0.45912613365999   11.15184339453619
H        -2.88855084779210    0.24775419629187   10.09307852062296
H        -3.81443718561905    0.06194243112963   11.63122389212056
C        -0.16849546607138   -1.53851974246340   10.58829897351080
C         0.37946489324685   -2.56548843331199   11.34722145304626
H         0.92520941152708   -2.33379066411326   12.25065032699989
C         0.23278014835431   -3.87976775017900   10.93955581011165
H         0.66696949380575   -4.67487524371073   11.52814440325238
C        -0.46497817561654   -4.17790173432345    9.78133387573322
H        -0.57614023546316   -5.20487612620197    9.46639680443553
C        -1.01437097904932   -3.15738583027342    9.02135819583270
H        -1.55393990479309   -3.38739904110611    8.11437708366240
C        -0.86097345119791   -1.84329760351879    9.41957464194444
H        -1.27148391294544   -1.04065268860165    8.81809265098156
C        -1.05952500679345    1.98086893356786    8.47874720720196
C         1.04214934014957    0.15581877233025    7.99819014394045
C         2.63460469602673    1.36342431012799    9.85912864837322
C         0.60100044663151    3.24439044110206   10.49719713938257
C         1.46471312126527    2.89729266165672    7.80780856933531

