53
CSD_code = IWAZIQ | q = 0 | S = 0 | Stoichiometry = C22H25Cl2N2STa | MND = 10
C         8.35327192687254    0.93479881973932    7.46285455965804
C         7.42996846597814    0.43205487653845    6.53108235153619
C         6.63926028332274   -0.66741276408058    6.80195296752989
H         5.93285026417786   -1.00459736158330    6.05921732614304
C         6.75844660397728   -1.32347994514835    8.01467370943651
H         6.14481580774267   -2.18419994776611    8.22767879959268
C         7.67632138442923   -0.86229717132118    8.94766058037324
H         7.77886067387234   -1.36920706030280    9.89577815411229
C         8.45757353894135    0.24081760172631    8.68113503126793
H         9.16300412034467    0.60210664377530    9.41591228858269
C         8.65265440993050    0.43503385540517    4.09285371344654
C         8.45844777160533   -0.82919901485697    3.56929871412900
H         7.50730221594625   -1.31686055560675    3.71563128516725
C         9.47334360037933   -1.45736600891950    2.86966205958295
H         9.32431399457937   -2.44845844748904    2.47203471250316
C        10.67485904109183   -0.79208304218119    2.67443947910877
H        11.46858351417515   -1.26629577057872    2.11666721851580
C        10.86601611539233    0.47506960897973    3.18093213471063
H        11.80303146132137    0.98960828768599    3.01964096778711
C         9.86413192021682    1.12657940307553    3.92056882874901
C        10.38037050160950    4.88873844983161    8.99682309162753
C         9.42784569082176    6.65315101742347    7.40500861115146
H         8.53269875019897    6.76755955116332    8.01343231258037
H         9.12968286327933    6.65519677925155    6.35851262812377
H        10.06682201945375    7.52078678744431    7.58063752885103
C        10.83879047481572    4.53620593440472    6.75789094758951
C        11.56203787356244    3.53700292159793    7.57464534646673
C        11.24762072213879    3.72729016631710    8.88380701970280
C        10.15651532618086    5.39475175156978    7.75714551426129
C        11.65695839487878    5.24164359778275    5.69158322273820
H        12.08107407015703    4.53114848684120    4.98457492586044
H        12.47952521621700    5.77664658200013    6.17015131869518
H        11.05694534168307    5.96160390414325    5.14131322003164
C        12.45377490520923    2.49830700779843    6.97388335916525
H        12.82275571647745    1.81590347808920    7.73466410441062
H        13.31558039554307    2.96441496760167    6.49575698093793
H        11.91524731824315    1.91889267564174    6.22239843903250
C        11.67652104136239    2.93223063297532   10.07217822634833
H        12.16388511265848    2.00609613826639    9.77822905965676
H        10.81634669457440    2.69249161515551   10.69666642045032
H        12.37427070855727    3.50713739769730   10.68162544125904
C         9.85602827747768    5.38570037504317   10.30159437775438
H        10.67359302869513    5.55843440034321   11.00074979000795
H         9.18504534448148    4.64983054053719   10.74668231810386
H         9.30907093943017    6.31456395723412   10.17062520598463
Ta        8.89608407976374    3.43206932673370    5.74029750723949
Cl        8.70921532430054    5.04452688997184    4.15508342498001
Cl        7.09711065170024    4.26446701629724    6.84441663760880
S         7.29200171647446    1.24430107816327    4.94104550637877
N         9.09154508783331    2.04071560506463    7.18244641050438
H         9.72277170015880    2.21544718758629    7.95967110944637
N        10.02739946568295    2.37244166818361    4.44690005776478
H        10.86160813211820    2.79959010477768    4.05858505331836

