69
CSD_code = IWEBES | q = 1 | S = 0 | Stoichiometry = C28H36O3OsP(1+) | MND = 9
Os       10.37246745340421   12.59111506465066    1.88493546881286
C        11.50296182596461   13.03172707515965    0.48784523197082
O        12.23793470268727   13.32367458441994   -0.35011552396584
C         8.92345466156277   11.89319187879718    0.49220659413241
H         7.93786433407100   12.02284772382909    0.95224471999519
H         8.95427870733494   12.43087531320422   -0.45791431887964
C         9.25817468473250   10.46963005703906    0.33801728390254
C         8.49020892374788    9.46882079951894    0.94239171021069
H         7.59620336857521    9.74291581628805    1.48641475449847
C         8.83981095862448    8.13669850915524    0.82493971069374
H         8.23085870687670    7.37715069011224    1.29244464501410
C         9.96430489577551    7.77257656417368    0.10099900739776
H        10.23631041951880    6.73229642002986    0.01091055236561
C        10.72563032089569    8.74921306718556   -0.52443994685244
H        11.58860585655333    8.46626742190511   -1.10810630605203
C        10.37530850706797   10.08074237301694   -0.41495126190879
H        10.95391595679306   10.84011146436206   -0.92270994097858
C         9.70882634232889   11.92556197272376    4.36363752535398
C        10.83194097035079   12.76945966453719    4.46270409153215
H        10.76276597072995   13.67061692048640    5.05917812618596
C        12.05208954388945   12.41945228127989    3.88932945292907
H        12.91947313712885   13.04607886132544    4.05032621496897
C        12.19730109319160   11.21615458694674    3.17124425978187
C        11.07695234998062   10.37686508556764    3.06358082676844
H        11.17654339736110    9.41434770370386    2.57834261423037
C         9.85774935180529   10.72565242687748    3.65495604563149
H         9.04450263594024   10.01455496380181    3.62067356493270
C         8.45847281050929   12.24275485936275    5.14777226633879
H         8.41172520315048   13.32855741331934    5.29439137386518
C         8.56990251390094   11.57591396234134    6.52458894449356
H         7.69541297539035   11.81642169992736    7.12290047974667
H         9.45529386731984   11.92213040257454    7.05357744775495
H         8.63102410784258   10.49431611394921    6.42273394445468
C         7.17729000438931   11.80209616395221    4.44102006060706
H         7.07724263744250   10.71926375086760    4.43930385345269
H         7.15569541150688   12.16443182474472    3.41373378078198
H         6.31546479094545   12.21379695350313    4.95964978032729
C        13.53045774004850   10.78700236366943    2.64625871902837
H        14.05215016858027   10.21290333363961    3.41335663676602
H        14.15021648535691   11.64265799627418    2.38878200337850
H        13.41964001554696   10.15234052453860    1.77006661065839
O        10.37329679778285   15.84886642185029    2.47346552953192
O         9.07976844522021   15.08890255662376    0.37343094649337
P         9.44565169462477   14.68385717502202    1.87344818427822
C         7.95032469735092   15.04871231112832    2.84304226230679
C         6.73073878425963   14.64216323196031    2.31110886172951
H         6.71153093459054   14.16017711228862    1.34311205118818
C         5.56031747136405   14.87047613803433    3.01182441251833
H         4.61308630445006   14.56480604945412    2.59477809415719
C         5.60773629847094   15.49112438804932    4.25079410965734
H         4.69541191492725   15.66806025405754    4.79909347941392
C         6.82295827053580   15.88898466671091    4.78485666376265
H         6.85621542682572   16.37522155495669    5.74794572914462
C         7.99743508332106   15.66377904308801    4.08681348952356
H         8.94604571464433   15.98207795980311    4.49092820285030
C        11.77423168980754   15.96601696385834    2.20113751562871
H        12.16935124897682   16.58313708077550    3.01281332782332
H        12.23319132854072   14.96940899601851    2.24031229629289
C        12.05021286722131   16.60729321182857    0.85365585528003
H        11.66285243809793   15.97809867303043    0.05643564411186
H        13.12221645804767   16.72170438197439    0.72155462935701
H        11.58635796893363   17.58846598611871    0.79785881236083
C         8.54821397054254   16.38680292582939    0.02334798911576
H         9.02997569749446   17.15632455460551    0.63375013356117
H         7.47454818415077   16.39611194647279    0.23214164084314
C         8.80894572364108   16.61474811880212   -1.45314028597044
H         9.87571520621146   16.61935796291324   -1.65619309722458
H         8.38667148145380   17.56869550834388   -1.75469196813996
H         8.34947008913280   15.82303817492435   -2.03734551376783

