80
CSD_code = IWEBAO | q = 1 | S = 0 | Stoichiometry = C34H41ClO2OsP(1+) | MND = 9
Os       10.64998754562081   10.64477767281555    8.57767720579701
Cl        9.90372046525437   10.10114146916008    6.52034766430933
O        11.14554291147376    8.28196499886625   10.01166761990898
C        11.01293396109403    6.92443307065015   10.48625809583816
H        10.19776230184228    6.87021105440006   11.21536568858156
H        10.79327154164524    6.27313716300200    9.63480899122504
C        12.32272739472472    6.51697905989527   11.13640238542470
H        13.13703963009589    6.60199745337676   10.42281982344283
H        12.25298178122709    5.48537642501201   11.46879122767582
H        12.53368752317211    7.14473160595271   11.99751130649122
P        12.79371689661145   10.02999889260589    8.15378254603737
C        13.20941932297849    8.27615582525135    7.86231546803510
C        14.41530317793117    7.71813768647212    8.26756263662035
H        15.13310555996950    8.31082997028366    8.81687884014896
C        14.69338648761259    6.39439105638812    7.96736907598659
H        15.62988369502872    5.95955837419514    8.28178571118569
C        13.77439048926619    5.63129129834598    7.26579039725897
H        13.99549189345630    4.60044429471218    7.03615901375231
C        12.57379757032429    6.19103936333310    6.85483677597257
H        11.86246923887036    5.59785829464697    6.30084692768855
C        12.28919040784123    7.51179081753151    7.15205484727674
H        11.36050360191754    7.97073207004135    6.83697467762968
C        14.00972957391527   10.60342823919747    9.38132744681194
C        13.98991013955827   10.03712273751045   10.65340978916788
H        13.28784108697649    9.24325408017155   10.85624711307928
C        14.85878240109886   10.49316150857177   11.62703744196134
H        14.84961168154082   10.04861288960806   12.61086576287150
C        15.74243820898623   11.52419862033545   11.34192567484778
H        16.42001993782959   11.87945786420964   12.10283722638438
C        15.75021049736195   12.10384857719102   10.08377404572107
H        16.43204239721571   12.91150016531165    9.86463331537961
C        14.88083326067273   11.65111014062411    9.10571759345339
H        14.87658128810570   12.11250110829714    8.12893715647317
O        13.18660241989956   10.76268190895650    6.78584564344829
C        14.29366213089113   10.36769188872009    5.94742104899159
H        14.03753849528887    9.42667702092852    5.45252762661038
H        15.18749222623820   10.21010896222953    6.55935814029593
C        14.51835492156265   11.46610628645512    4.92576997472656
H        13.61966913165379   11.61319219008575    4.33370365259792
H        15.33399243135294   11.18563936034887    4.26578048884646
H        14.76947999819574   12.40314875353513    5.41597454030004
C        10.21392662769749   13.24049236617058    8.03990014820695
C        11.42044769902273   13.15465871332347    8.73908131374649
H        12.32924964135364   13.53919333821571    8.29869650603395
C        11.46785519594988   12.62700697662185   10.03651934012545
H        12.40562055777404   12.62729608271762   10.57793058975194
C        10.30233704771278   12.19081100718750   10.68137418175484
C         9.07893486936926   12.32745711859475    9.99577316706968
H         8.15640041737232   12.08269673638409   10.50281021222194
C         9.04165502813136   12.82417595456225    8.69946343538756
H         8.08717573250578   12.94109057542309    8.20406330074630
C        10.11628205648138   13.86965190626800    6.67268810797702
H         9.21055257687715   13.48600642832384    6.18948919885114
C        11.30893251196687   13.53856271873334    5.77687225827367
H        12.21066895787647   14.04631973722606    6.11192135686810
H        11.10163776290607   13.86375779949597    4.76067834996049
H        11.49244221659770   12.46553820633164    5.76350315349793
C         9.96561638167059   15.38600632954997    6.84219683786052
H         9.08842922176412   15.62519923272849    7.43993231061114
H         9.85784212940573   15.85691723905047    5.86883494856546
H        10.84181766122115   15.80482313010033    7.33344489036661
C        10.33495368662876   11.72839684385807   12.10598692914098
H        11.28695553085107   11.25758989002272   12.34194972560398
H         9.52696969639241   11.02835676321383   12.30591632232991
H        10.20779144307177   12.58534618746223   12.76874521043744
C        10.21431432176072    8.91959877205852    9.34267462152830
C         8.86838198990073    8.29720681802366    9.11686508519867
H         8.74039407176593    7.35755905718948    9.65532090069098
H         8.79182232302322    8.10319561744923    8.04001882420583
C         7.76187609014642    9.25170362518875    9.51239986804281
C         7.41810637701573    9.38224901016806   10.85381248124157
H         7.94673280470367    8.80803574320363   11.60227628077136
C         6.39010883026499   10.22662318237651   11.23600993219389
H         6.12499828397268   10.31471874025065   12.27912066499055
C         5.69552331192467   10.95039369909073   10.27941836147524
H         4.88854818201058   11.60264526467443   10.57648590814336
C         6.03258713473802   10.82317909225675    8.94217152798495
H         5.48267825051352   11.37329283104833    8.19332073500792
C         7.06202812418245    9.97894573352045    8.55800510259486
H         7.31019962719188    9.86808131273381    7.51312730229211

