63
CSD_code = IWECAO | q = 0 | S = 0 | Stoichiometry = C18H36N2O2S4W | MND = 6
W        -1.59329509900033   -3.70990061810279    2.64610392941186
S        -1.98577427523985   -1.26116759230687    2.60458911268188
S        -3.17985908448884   -3.06755864475244    0.64359787210114
S        -1.14843286513349   -5.88554979359826    1.56951744506090
S         0.19044902388310   -3.42566456684210    0.69757863774860
O        -0.22945926937192   -3.80795026453663    3.63151421438596
O        -3.01509062522901   -3.99656014800991    3.49760833498045
N        -4.59591324276618   -1.22576341780694    1.95027459060630
N         1.51005239472544   -5.50912415781876    1.70920572896506
C        -3.42747884870168   -1.81424624481249    1.77320484612779
C        -4.76345316824951   -0.11747344221929    2.86692226055984
C        -4.83304231374319    1.24446840817295    2.15530990621419
C        -3.58689816663973    1.49700096369649    1.31445629839240
C        -5.00432010805819    2.33625868140186    3.20800740608223
C        -5.78947125505122   -1.68156684547330    1.26166278168521
C        -6.67487994122767   -2.60374865237286    2.11701940580164
C        -6.03071237701727   -3.97021434871276    2.32180043281113
C        -8.03246218975672   -2.75134461353468    1.43212660839361
C         0.34595929531430   -4.97153994075522    1.40124077795804
C         2.72437174328948   -4.71930161218882    1.59938557190096
C         2.89355732035884   -3.70541072613590    2.74399904368394
C         3.00933663913865   -4.39782286521199    4.09804307167264
C         4.11922912786524   -2.84404114915821    2.45659576310028
C         1.57294818910134   -6.82986241059253    2.30543333179203
C         1.47015358008204   -7.95177592127820    1.25983582733180
C         1.42499987363959   -9.29743411928310    1.97732366635715
C         2.63775152238405   -7.89774785305473    0.27893034638345
H        -5.68634647953544   -0.27998565346898    3.42905644544091
H        -3.92268206154363   -0.11433933308064    3.56337513573704
H        -5.70918651193781    1.25651595776843    1.49714362660785
H        -3.47654786457686    0.74079773573109    0.54134836245703
H        -3.65297148005133    2.46942116878800    0.83295458963559
H        -2.69810478504613    1.47536100243407    1.93880142272659
H        -4.14240763332426    2.35844705997701    3.86991742888475
H        -5.09475068202527    3.30811433727025    2.73025372855523
H        -5.89612698975330    2.16445430280073    3.80643354464801
H        -6.35798284093814   -0.79302195824030    0.97770215949052
H        -5.48580269067932   -2.20856987331887    0.35518130480451
H        -6.82798953567975   -2.13774637753546    3.09666102841347
H        -6.67392574882290   -4.59816711047537    2.93376173027046
H        -5.87694723596026   -4.46430881117601    1.36484306459599
H        -5.06776469977335   -3.89084141859552    2.82753139021700
H        -8.67795999246838   -3.40046736014602    2.01764606485223
H        -8.52460915552327   -1.78705017552258    1.32358591034564
H        -7.91038520270080   -3.19068728987921    0.44498011843103
H         3.57019631801216   -5.40796178865799    1.58446632075970
H         2.68887614699496   -4.17826514440644    0.64921953662381
H         2.00432285388224   -3.06590818511853    2.77150912587709
H         2.06472144451259   -4.86830642067963    4.36078874175513
H         3.80332552710669   -5.14353213540379    4.09493595810500
H         3.23440429344918   -3.66305489993096    4.86691589442088
H         4.24122443691638   -2.09510411745921    3.23425453749689
H         5.01791966203281   -3.45766734323305    2.42654389419212
H         4.01558461136833   -2.33269620625305    1.50273903150550
H         2.51678069648548   -6.91383157756177    2.84421615962106
H         0.74870298588181   -6.92604272142288    3.02182863536034
H         0.53676752609471   -7.81500940850883    0.70683224144409
H         0.57299316243292   -9.34269926852821    2.65021273907936
H         1.33382128573071  -10.10450301505157    1.25560720283785
H         2.33340566727414   -9.45473641821679    2.55539256847619
H         2.64291700556292   -6.95759955770675   -0.26676487987858
H         3.58608324170448   -8.00863912894710    0.80196174460315
H         2.55357884418525   -8.70582697102134   -0.44312372018847

