52
CSD_code = IWEFIA | q = 0 | S = 0 | Stoichiometry = C19H24BClN6Ru | MND = 9
Ru        0.63755717166794    1.77841360776308    3.03769589211058
Cl       -1.37053382769277    1.26692137632790    1.95301265787622
N         1.27329403590351   -0.90387844454822    4.17111092995482
N         0.04856796820857    0.55902020234797    5.69570841956503
N         1.58277845320705   -1.18636467198252    6.64376195503822
N        -0.37475716172670    1.39578909043906    4.74983497227767
C         1.12091107356876    3.97745006730650    3.52875985322026
C         2.39736340083047    2.23225035670649    1.64639831447493
N         0.95238549270077   -0.21935040994011    3.07551950855712
C         0.66807841518115    3.88662477180631    2.20246186879068
H        -0.13545221726199    4.53129262116007    1.86155836949738
C         2.22746292038650    3.16574330716971    3.91757933797938
H         2.63839649808092    3.25887752019930    4.91434411898940
C         0.88542347771988   -1.06758273131266    2.05517767675178
H         0.61308075725886   -0.73237872677974    1.07122714952050
C         2.84501693990573    2.30808572869370    2.99992915239994
H         3.72536357888899    1.74755299848900    3.29582815172236
B         1.39763225746167   -0.18383137835222    5.53726976660595
C         1.30355354442009    3.02170381241156    1.26731456033552
H         0.96635764593718    3.02032648741020    0.23598183054838
C        -1.56316466930374    1.86951175558551    5.11168951292805
H        -2.10438269625488    2.55099522755696    4.48099449245424
C         0.59948357237353    4.66533343703696    5.92647799987484
H         0.18959015644352    3.67267606845733    6.09695507856435
H         0.01468632405988    5.37936863254104    6.50115434983618
H         1.62052839743321    4.69451354649687    6.30017745810036
C         0.54099904214978    5.03262426929986    4.44425738876475
N         0.69254126575933   -2.15815206713464    6.88241773437138
C         1.18023229211818   -2.34872402916182    2.50945928131764
H         1.21033736298159   -3.25229373209723    1.93706522482307
C         3.15037139866562    1.40159642729098    0.64891396923539
H         2.54380050435413    1.20817033754904   -0.23290292711318
H         3.45120473129326    0.44946602231717    1.08328457228209
H         4.05263145203288    1.93140637759734    0.33698293372985
C         1.41653963209211   -2.19593047124251    3.86236135522109
H         1.66008319376044   -2.92280197987083    4.60916491633637
C         2.37643043984243   -2.34162692066508    8.34769986914503
H         2.98598950976838   -2.69785975271206    9.15306651590020
C        -0.86130644199122    0.49289059824527    6.67193588474214
H        -0.71828869936107   -0.13994022701311    7.52314296009154
C        -1.91524918767412    1.32356632588722    6.34158587121996
H        -2.80814020415086    1.50384711980194    6.90284749530502
C         2.61126798860123   -1.27404411358158    7.51509661525155
H         3.42682969617432   -0.57973540930597    7.48151477974992
C         1.15268473128610   -2.85748137309264    7.89958610788588
H         0.60121742105468   -3.69785639699568    8.27481283746153
C         1.29041502156564    6.34819424976328    4.19247505374401
H         2.34643904462340    6.23529695835711    4.43102876151698
H         0.87806072175775    7.13583878392811    4.81780120037522
H         1.20302576639888    6.65183021328876    3.15154229877536
H         2.29785876587482    0.60087272540013    5.50787675101645
H        -0.51019695837535    5.17568181115882    4.16815917087772

