49
CSD_code = IWEFUM | q = 0 | S = 0 | Stoichiometry = C17H28ClOPPd | MND = 4
Pd        4.76602153014209    2.48243545480986    1.64466977386215
Cl        6.83600025281704    2.95810438318717    0.74881186922530
P         3.77836475348049    4.40357137474828    1.95776852548416
O         5.25260903034042    0.29995537212493    1.73336205874615
C         3.06635360231274    1.76690041790586    2.37292183913374
C         1.95801368092626    2.54867282548630    2.70743690677244
C         0.83241281912025    1.96994774211724    3.27488004573603
H        -0.02054156662739    2.58324440591266    3.53238417413369
C         0.79900855674695    0.60527135857355    3.51038080280826
H        -0.07588592462236    0.15495896522759    3.95516972666574
C         1.88195286662547   -0.18283159900185    3.16838057766526
H         1.85281601863660   -1.24991427479369    3.34166482098256
C         3.01528873982477    0.39064543195327    2.60150347793552
C         4.18031145196628   -0.49058116379908    2.21446136065868
H         4.52159310021012   -1.08197104406571    3.08227138997125
H         3.86615899153021   -1.20084514565174    1.42902093319358
C         2.01471050371596    4.01790205408619    2.38100011468784
H         1.63861365347820    4.64081357899952    3.19644621733936
H         1.38774933056986    4.21145851412692    1.50578684753767
C         3.69460384978247    5.46092875177524    0.40708718558350
C         3.38202164170273    4.42520779007245   -0.68089378594887
H         3.37952277186257    4.89448526551069   -1.66313405686383
H         2.40937336981099    3.95756018728864   -0.52232497480747
H         4.15334159330866    3.63868319090566   -0.67469230376850
C         2.62596024641150    6.55074161073704    0.44800403905086
H         2.64354174394374    7.10443019279894   -0.48986626306782
H         2.80999253758464    7.25336227747006    1.25642860807985
H         1.62769521519246    6.13786684565070    0.57128338653253
C         5.06867666261366    6.06539915165721    0.12939352976291
H         5.11324772631773    6.42776878599694   -0.89657525225877
H         5.84353917340692    5.30862212172944    0.25766095704061
H         5.27086947018956    6.90518558613944    0.78969505726506
C         4.48387309591069    5.21595923101256    3.50040570657099
C         3.79763394070886    6.52013365032377    3.89285035777700
H         4.16982626280549    6.84987753258250    4.86194820992460
H         2.71876505588180    6.40222960663596    3.96990869069863
H         4.01211715987486    7.30347795362768    3.16976160490940
C         5.98474209412190    5.42715799759201    3.30258232927758
H         6.46337241677231    5.61063204896636    4.26351561646998
H         6.19437683198850    6.27347907892797    2.65602956247397
H         6.43211362436442    4.53285964510130    2.85849456238521
C         4.30118204027649    4.14428419436197    4.58201520628449
H         4.77790906310947    4.46190868963606    5.50815195761612
H         4.77589661838791    3.20692522122432    4.25088015345800
H         3.25153826996276    3.94572482457843    4.78961364070848
C         6.35075916978777   -0.44729548092673    1.26845894081521
H         6.77529930402141   -1.05810203951902    2.07539692657233
H         7.09534822660752    0.27111933705425    0.92207050544630
H         6.05720943209703   -1.10215190085871    0.43792843947255

