54
CSD_code = IWEGIC | q = 0 | S = 0 | Stoichiometry = C21H23N4O5V | MND = 6
V         0.24341318757904    3.34055798159912    8.80736422585644
O         1.72531680923480    3.54126473255954    9.10573989533559
N         1.30288704821341   -0.33900399881306    7.87371768497831
C         0.89378393484336    0.94837959245709    7.69603005423211
C        -0.64552816721214    3.53545084515787   11.52675112589705
H         0.35014107143317    3.30646564555900   11.93826289242322
H        -1.40525612337760    2.91411095690085   12.02644115023096
H        -0.87440480463736    4.59475368702933   11.73029625944939
O         0.11395262536267    1.59820614941240    8.47528350019898
N         2.04730539805603   -0.75173833378052    6.81635893385195
C        -3.19111851382546    3.95423870200533    7.91859478001032
H        -3.01621180892737    4.70702768009593    7.15014346894034
H        -3.09644016324052    4.42401431074097    8.90336916671124
H        -4.20343860485193    3.54976531430364    7.80060098099549
C         1.41366004036623    1.37684254864715    6.45782124361093
O        -0.34507150080687    5.02494278607382    8.45074711157488
N         0.58266072715461    3.53548558672467    6.77650857128070
C         2.12481070209227    0.24068557860590    5.96646373058106
O        -2.22216452893251    2.94282708731834    7.73069551449896
H        -2.37575688801795    2.25015241455290    8.38677268499276
N         0.32291252151732    4.77842570790447    6.32206737835047
C         2.90028929430315    0.09011519679479    4.70787684082050
H         3.37535378510928   -0.88669959204964    4.70677296779897
H         3.66402688191773    0.86149111255872    4.63605521694235
H         2.24816238472446    0.16824864666295    3.83960866637138
O        -0.66366311127441    3.32564758354456   10.17880165453732
C         1.16222614112381    2.68849628905862    5.97249007233176
C         1.56189318607037    3.08135464344313    4.58233059172014
H         1.13773887163814    4.05382696158106    4.34885115442113
H         1.21570885935346    2.34033814931512    3.86618204278822
H         2.64694889339116    3.14161865910245    4.51829419997833
C        -0.13982539583857    5.52447773774028    7.28146244927503
C        -0.45173605597837    6.93807213743377    7.02283137990052
C        -0.28415210997508    7.49054662811161    5.75426151201760
H         0.08820898909905    6.86347744008492    4.96035911956459
C        -0.59302113872641    8.81886595843297    5.53369703681797
H        -0.46238827457185    9.24599956820227    4.55020822593940
C        -1.06831919745301    9.60727368440032    6.57082318474670
H        -1.30737090718123   10.64573918252519    6.39427889251373
C        -1.23430944456109    9.06344521399977    7.83442945471425
H        -1.60193187350529    9.67854273789147    8.64282017816167
C        -0.92869935239749    7.73514015095137    8.06192885993729
H        -1.04780786947205    7.29567362768062    9.04209460139725
C         1.09862273064275   -1.18089515399064    8.97143975264793
C         1.35669475298533   -2.54166288530705    8.82970733526079
H         1.70997777077155   -2.90359272677117    7.87783051821158
C         1.16740176075780   -3.39102641946734    9.90248123630036
H         1.36822715343584   -4.44608713048422    9.79042553920962
C         0.72105956228335   -2.89501041221890   11.11685624212724
H         0.57125713992825   -3.56129262735179   11.95314992643052
C         0.47500450157432   -1.53917263779174   11.25703350275142
H         0.13935090192560   -1.14744715584127   12.20608239158447
C         0.66420714852075   -0.67539161354525   10.19329184346585
H         0.48931105935435    0.38593207024595   10.31071305531376

