51
CSD_code = IWEGOI | q = 0 | S = 0 | Stoichiometry = C19H21N4O6V | MND = 6
V        11.74376706040345    2.81752675899132   -4.34940882921153
N        10.51367974108314    1.35407178522475   -7.78721709121850
N         9.47992882486433    1.76057613128878   -8.56417245973185
N         9.73175405083556    3.43184483463108   -4.37350806376439
O        12.12554359187533    4.08040094467490   -5.13299492262010
O        11.20490289923561    1.64742348582069   -5.56450113477947
N         9.38955214123264    4.09141117670037   -3.24498814382414
O        11.42172874760294    3.33082907816301   -2.64268196278598
O        12.98990556772759    1.94072098814237   -3.85752131685521
O        14.70453700144906    4.38426604438191   -4.23270414808124
H        13.89624520910786    4.42938072024059   -4.77572601987662
O        11.28947793559335    4.66826695645130   -0.25421295908000
C        10.42192840422332    1.90055859511702   -6.54479249916926
C         9.26775847982366    2.71316945079559   -6.53820500507450
C         8.72945853919432    2.56246227549340   -7.85248745481839
C         7.51957906167321    3.18609658020958   -8.44725971503893
H         7.45070622424880    2.88735712456903   -9.48920407338378
H         7.58137818334481    4.27076699593181   -8.38860632400131
H         6.62088932443388    2.86331699630479   -7.92448606003748
C         8.89545246144908    3.43843281488111   -5.37723227016429
C         7.60053127067769    4.18762859466951   -5.31284170112513
H         7.45685253381883    4.57166211212362   -4.30667741231044
H         6.77398911933514    3.53563041252213   -5.58565034137890
H         7.62614020464735    5.01942787567105   -6.01429964198780
C        11.52427508560128    0.53523760702874   -8.30625772297389
C        12.78473096759763    0.49888256595101   -7.71761179261862
H        13.00354835843454    1.11711235754031   -6.85578406211214
C        13.75960693032796   -0.32119912966133   -8.25701382124277
H        14.73928774182896   -0.34989973901035   -7.80364254754316
C        13.49177374853043   -1.09192512396228   -9.37652629887461
H        14.25934362743342   -1.72833744869748   -9.79054199184383
C        12.24018771574427   -1.03721179780789   -9.96840167334510
H        12.03021200145506   -1.62976841593348  -10.84625330087268
C        11.25422430163430   -0.22741047471701   -9.43825561495861
H        10.27544366821528   -0.16261230510772   -9.88549839922886
C        10.36516947517292    4.02725789937436   -2.38666817224957
C        10.25723972870551    4.73082698385777   -1.12286481616224
C         9.25073930840312    5.50768890266563   -0.60075788694882
H         8.31787308271121    5.72891516967747   -1.07430924909843
C         9.70712818393442    5.93792493828444    0.66114761714376
H         9.18682473576205    6.56213438992974    1.35811351890132
C        10.95033404964834    5.39600141611079    0.81421182149700
H        11.66343280845505    5.45783042384334    1.61272741567681
C        14.17857126218499    1.44249242715415   -3.42516361972318
H        14.34311915591517    0.44486809806316   -3.85941559918247
H        14.16047608930924    1.34795370605532   -2.32777000471117
H        14.99318466860764    2.11788734691860   -3.72530274480561
C        14.42748866521451    5.02997857241571   -3.00964121495642
H        13.56786881227725    4.57438923090609   -2.50070094727603
H        14.22741084731212    6.09696794651843   -3.16404097619009
H        15.31531840173390    4.92418571962111   -2.38499836593580

