51
CSD_code = IWEJOJ | q = 1 | S = 0 | Stoichiometry = C19H22FN5O3Re(1+) | MND = 6
Re        2.97532394976376    4.23188723641599    7.80874250837084
F        -0.00253745331959    9.99302995611582    6.41203745915407
O         0.09418415215915    3.93350470199278    6.71757608700514
O         2.85854264092823    1.21889382091733    8.47605439288907
O         4.17876531246788    3.62742692106781    5.02477843425481
N         5.04353679311838    4.48845193956143    8.81024145432258
H         5.67826205782641    3.74522309525528    8.51601401481562
N         2.49857569719606    4.77985636997099    9.81242901523076
N         3.07871678766368    5.17566289772608   11.88473754519997
H         3.63283373303998    5.24797961997070   12.72372577842472
N         3.42332350485067    6.63405483971882    7.58647272564532
N         1.47178826288500    7.75522045991882    5.78392650341388
C         1.15514608217539    4.10706211244425    7.10662198980683
C         2.88438966341819    2.32440825356067    8.20089847567588
C         3.70072746950073    3.84870573527013    6.03830941923802
C         3.50666961118741    4.80025526359394   10.66434404651201
C         1.73122671048129    5.39856201237664   11.79977912387920
H         1.14660003628664    5.70659303058029   12.64029373537313
C         1.38448810811351    5.15197641338689   10.50618042236016
H         0.42333753446094    5.20748833836474   10.03570576026918
C         4.89292745422955    4.39637063354477   10.27508442355144
H         5.63914815847758    5.00979710293579   10.79877619979379
H         5.04445354690807    3.35336556856256   10.58063118536902
C         5.63175629418537    5.76046542790075    8.36157966917724
H         5.97148133394641    5.63105795553468    7.33070186654826
H         6.50304812573636    6.03247885424517    8.97199954949725
C         4.60328266136403    6.88673828759130    8.43496657903053
H         4.26785402977135    6.99562139643850    9.47207472425549
H         5.08672333329204    7.83068667342409    8.15037325840130
C         2.34668466122212    7.54086107146265    8.03076011749321
H         2.70163025297085    8.57886085704161    7.99318952481965
H         2.06697014233292    7.30754228724367    9.06125703930835
C         1.11738695323733    7.41857945918591    7.13930609650622
H         0.73960395537086    6.38011094809141    7.19970069294427
H         0.34436976986919    8.08902187519905    7.50959712464326
C         2.50016647433871    6.88034556085033    5.28833145315353
H         2.78048669381661    7.18458870756651    4.27923108586093
H         2.17445435089864    5.82185498132526    5.26946840425498
C         3.72726987150818    7.01481859941820    6.19129689522316
H         4.53044562455529    6.38825239193204    5.79949382172180
H         4.05430856943976    8.06292058038877    6.16548593061154
C         0.47085004323989    8.21021071987233    4.91530372881999
C        -0.25774494337715    9.35842570863822    5.23781548461880
C        -1.22325085183585    9.88432025794237    4.40720975375820
H        -1.75123636738887   10.77317825921035    4.71337761855859
C        -1.47716085934573    9.27005553883627    3.19242004392865
H        -2.22476840823419    9.67590160422449    2.53060216553975
C        -0.76265631394536    8.14006922705782    2.83767969030565
H        -0.95444280075603    7.65460763408870    1.89362873134464
C         0.19478977277405    7.61324479242106    3.68690535371458
H         0.72486781718397    6.72070401961429    3.39468289540838

