69
CSD_code = IWEMII | q = 1 | S = 0 | Stoichiometry = C26H39OP2Pd(1+) | MND = 5
Pd        3.22180529015947    5.83149872149993    2.72452207176125
P         4.91828914192756    6.16958004738880    4.17822496652659
P         4.30653477019043    4.12988278023947    1.66151886092102
O         6.28881427908998    5.39534136004980    3.82189223498522
C         5.58364324398555    7.87992569407754    4.37025270115582
H         4.80003756460122    8.41679727261960    4.91907783584376
C         5.70235275503502    8.49508336901544    2.97642425365380
H         6.58784162260519    8.11773897768334    2.46896093829213
H         5.78483148523850    9.57773553603590    3.03815533004042
H         4.81459153647477    8.24631374918641    2.37590997333371
C         6.89192067617461    7.93186770206553    5.14622488606024
H         7.66946347321146    7.38676272279423    4.61733576824814
H         6.77751272486951    7.49923223965222    6.13760614375791
H         7.21327119756601    8.96504855018852    5.25834481978891
C         4.48798737315419    5.49605215800103    5.85938425252485
H         5.41914448832108    5.23852470050630    6.37797306576372
C         3.68785301560794    6.49571988093230    6.68362891222298
H         4.29519048722090    7.35117384341405    6.96835614522135
H         3.33004838089458    6.02128811504129    7.59525361451767
H         2.82452929066098    6.85013907266372    6.12268966497992
C         3.67869736221863    4.22454793815699    5.59227675592751
H         2.83502722364661    4.44165436318740    4.91239876529047
H         3.27412744786879    3.82144755076092    6.51866201601831
H         4.30972140257371    3.45892246853116    5.13757932618323
C         6.46156298326499    4.06185119503780    3.49916096421643
C         7.52744582974998    3.43287229371736    4.13226868183469
H         8.09893284653970    3.99559187714523    4.85412924712096
C         7.85317640834895    2.12367314540426    3.83193073557719
H         8.68578318656467    1.65202603918564    4.32894060438394
C         7.10736842222443    1.42590703192793    2.89554837809907
H         7.35484820146066    0.40471048027978    2.65285560641626
C         6.04278550339907    2.04435627181356    2.27007697640899
H         5.45533117111908    1.49836051649286    1.54605735577803
C         5.69652908795464    3.36651862181423    2.55628210204302
C         3.17854309266053    2.72900442227332    1.37917816050183
C         2.89315081943854    1.92992673122456    2.48833320320408
H         3.42221373957891    2.09792431717066    3.41756821897457
C         1.95278150629180    0.92165172325170    2.40425817880399
H         1.74764461331183    0.30584186414846    3.26663516624818
C         1.27175077054918    0.70510681111518    1.21643252627887
H         0.53840259716889   -0.08309793582526    1.14865684473482
C         1.52746888722763    1.51140581044212    0.12066730403934
H         0.99047922974223    1.35517729254988   -0.80263973529607
C         2.46566120950114    2.52616743228987    0.20168757841197
H         2.63236673586889    3.15406080863625   -0.65987835399464
C         5.11960888713615    4.73251460879861    0.07488271227087
C         6.33761294943816    5.55065039977739    0.51120151326279
H         6.74969690278231    6.08426068202833   -0.34311107143223
H         7.11996411192803    4.91545093632479    0.92170827283916
H         6.04381911049639    6.28337658351562    1.26618036811402
C         4.12342996451634    5.68815575486310   -0.58612023270183
H         3.85069160194211    6.47759817233530    0.13100668813462
H         3.21939386009142    5.17711566259771   -0.91060452720955
H         4.57493340294012    6.15876245345365   -1.45776863845675
C         5.56043595973757    3.60097525275820   -0.84604549736102
H         4.72794378545625    2.98561131341817   -1.17490364144309
H         6.28417372605557    2.96145043182626   -0.34415202671062
H         6.03944099051799    4.02130771859401   -1.72864883608878
C         1.32639969567538    5.58743657436635    1.78464806323488
H         1.13008234010383    5.34774694434450    0.74513092460534
H         0.88509082093336    4.88202840529207    2.49588789431305
C         1.48076368621509    6.92965249484088    2.15771124300788
C         1.79838332156644    7.18634133356024    3.50974962393543
H         1.29678909728192    6.58446868847274    4.27233996004276
H         1.98427637532863    8.21569633743984    3.80443019822522
C         1.58727252427996    8.02346989070420    1.13295380292019
H         0.72140998675450    8.67885748834806    1.23338770176235
H         1.59404274419741    7.62745628453667    0.11884040071784
H         2.47948107936923    8.63580002401237    1.29009205721891

