87
CSD_code = IWETOU | q = 0 | S = 0 | Stoichiometry = C40H36N2NiO8 | MND = 6
C         4.48145628391350    5.00177503091860   15.94507496992008
C         3.61852286896162    6.05749706229723   15.65984982332433
H         2.69877394625219    5.87603004539427   15.12340619717194
C         3.93282297949785    7.33840919280032   16.07448010491024
H         3.25413293092718    8.15185857660226   15.86087091024728
C         5.10985311337620    7.58044612125734   16.76614718178339
H         5.35054150143826    8.58340624857193   17.08846509047486
C         5.97512804953298    6.53519958334938   17.04864711615938
H         6.89373918148113    6.72373935781305   17.58351310482635
C         5.65997805026512    5.25207112798556   16.64544737380758
H         6.31653357762017    4.42464447534548   16.86495171340057
C         4.16567519964803    3.60140625395339   15.56093091294825
C         2.91831699662956    3.41477874522163   14.76226348101893
C         1.75157683292977    2.98215478254131   15.37734337670780
H         1.75435474827771    2.77494192587043   16.43774004867832
C         0.59399630294482    2.82410446208180   14.63399562989368
H        -0.31109543051270    2.48874329520783   15.11920644590870
C         0.59331652366916    3.09188121786521   13.27387182358820
H        -0.31271431844911    2.96683155729139   12.69923091718562
C         1.75594706331014    3.50984378696604   12.65312356077733
H         1.79017491401291    3.71540703628551   11.59376335367319
C         2.91920827418431    3.67042373718450   13.39291715248405
C         4.20241884346358    4.07834675896575   12.72837292405611
C         9.99616314705913    3.86682279467118    9.53219827480840
C        11.26749977751897    3.86662339596988   10.10220311261552
H        11.68119006456792    4.78110906097293   10.50000375850387
C        11.99301553462171    2.69214587012788   10.17362975893743
H        12.97561999218243    2.69504972879876   10.62224036526134
C        11.46769827868296    1.51367380454339    9.66628267494884
H        12.04378274757973    0.60094222399739    9.71791651787231
C        10.20837475823447    1.50867671614039    9.08810930472182
H         9.79853757642235    0.59305822176169    8.68844154443154
C         9.47447780066725    2.67758664981198    9.02352967625926
H         8.49170897338460    2.68631333536535    8.57782498623872
C         9.18216951561114    5.10695624584022    9.42315714157691
C         9.95161689745317    6.38102840031084    9.54413724333176
C        10.52015394548473    6.97619617378924    8.42770454217380
H        10.40199386227841    6.51720280467509    7.45689569210771
C        11.23518604409196    8.15445738898151    8.56606650278355
H        11.67703607604401    8.61506258458870    7.69469203351251
C        11.38692151925230    8.74361123673228    9.81201391899294
H        11.94747079210675    9.66156825081977    9.90951736907495
C        10.81784849891393    8.15710183306016   10.92753413374842
H        10.91319902043245    8.59373301206236   11.91026470891097
C        10.10170063583608    6.97686752386377   10.79314423874230
C         9.43084362989751    6.30803727079768   11.95630010492822
C         7.35230072311653    2.24522468603703   14.26889756394408
H         6.59953382715018    2.75139768864463   14.85576479346727
C         7.79684130795078    0.98636984036808   14.65759805158879
C         8.75186827035415    0.36496768759772   13.86073493090162
H         9.12289910075784   -0.61659863982895   14.11897713642463
C         9.21245310474325    1.02191249219125   12.73316785221278
H         9.95327379553630    0.57557412910062   12.08845402858194
C         8.70468997667007    2.27164556703985   12.42290781955568
H         9.03957841935037    2.80556791866271   11.54811548307408
C         7.25354426572818    0.35072831369088   15.89532070775975
H         6.33494100916100    0.84632908077185   16.19600828313883
H         7.97617310854042    0.43308116018600   16.70736222554374
H         7.05745841268819   -0.70619262344762   15.72892294505799
C         6.24999865696530    6.62875071669884   11.07988061337703
H         6.52764146614240    5.96925168810454   10.26947376388014
C         5.78720539683033    7.90570184907575   10.78399172678950
C         5.46546405708832    8.73829328894304   11.84804544084229
H         5.10454329662003    9.74068809572926   11.66744571364955
C         5.62291134033673    8.26538193046926   13.13918649190736
H         5.39104122674072    8.88260286670142   13.99228062613557
C         6.09338797619890    6.97968827856183   13.33707814231454
H         6.23701052396702    6.58418428129885   14.33270797142965
C         5.64011981478588    8.33118614666255    9.35930975286074
H         4.66179348433088    8.02854872080085    8.98625847258015
H         6.39630339103496    7.85407081640774    8.74113326314190
H         5.72342315130674    9.41112937102285    9.26444255959799
N         7.78623334866698    2.86963702110391   13.17749612551988
N         6.40119321093811    6.17980823206777   12.31971649493494
O         4.79146432158072    2.65500212219054   16.00343966187599
O         4.19821994545635    4.39141900634034   11.53406487163137
O         5.22485585029296    4.05518539174760   13.48096241639981
O         8.02855639620032    5.08677855035608    9.01574172040147
O         9.50471669901202    6.82345239257017   13.07854448119581
O         8.82124129791563    5.23390066611356   11.66605138096633
O         6.55646222296365    3.37630153501087   10.67924011520455
O         8.12461673071294    5.29897097766620   14.70956251434015
Ni        7.09008739919995    4.52396102308798   12.70697090665535
H         6.97089144304578    3.88829437383731    9.96675430478568
H         5.62699820188151    3.67854473863667   10.73802525552886
H         8.67460360606545    5.96228829558783   14.20660974211163
H         8.74989270011230    4.68540541220812   15.10103283133635

