53
CSD_code = IWEVUC | q = 0 | S = 0 | Stoichiometry = C20H18I2N6O6Zn | MND = 6
Zn        7.09627306283141   13.45758888416201   -0.00023485365704
C         4.68785688517522   13.57901120607612    1.31948420084423
C         5.07901825957025   12.11929200981935    1.30657279904156
C         4.40781908073471   10.95418652217210    1.62049594839880
C         3.01821656339903   10.78680652084263    2.09357939807017
H         2.52302170125511    9.96167640655376    1.58394017785588
H         2.49307464850528   11.72035577065417    1.89976928725224
H         2.98798087838609   10.60932206233575    3.16869162732250
C         5.20204809440569    8.57656053122940    1.40046120930413
C         4.43193703404872    7.94482059110632    2.36914121818757
H         3.90847917167748    8.51416564095902    3.11871074206472
C         4.35629317039540    6.56360826354962    2.39098013642541
H         3.75803014287439    6.07194933139764    3.14212982603864
C         5.05582782300479    5.82294681351494    1.45451449718741
C         5.84224308668758    6.44486951081690    0.49848737953890
H         6.39332171919785    5.86174004672595   -0.22244067388867
C         5.91492124496525    7.82336445081270    0.47115820901544
H         6.52498735723580    8.33230248550327   -0.25801860772758
I         4.92935868594863    3.71436515559712    1.49297276254010
N         5.31472342673981    9.97492579717537    1.33627155812787
N         6.44870097501315   10.51006843047251    0.88546328079268
N         6.30922882407093   11.78169980062256    0.87065779362614
O         5.59629430234354   14.34279008919875    0.86674461266936
O         3.58463160866679   13.89696797534477    1.72709972092944
O         8.56756899055207   13.62490278792675    1.71269118675724
H         9.10774638849748   12.84985424796256    1.51673703243156
H         8.17533818326054   13.49690230020975    2.58128482976513
C         9.50485511287244   13.33600651526465   -1.31991337324220
C         9.11385089427886   14.79579893849816   -1.30680382857994
C         9.78511544235144   15.96089493781679   -1.62062227802949
C        11.17472452201479   16.12828219063277   -2.09370918889412
H        11.66996039121859   16.95332384221908   -1.58396541600432
H        11.69982247831773   15.19468524717853   -1.90000218325370
H        11.20495836591783   16.30591656128486   -3.16880605184674
C         8.99096927671722   18.33853804917415   -1.40030410933307
C         9.76118859721231   18.97045826614048   -2.36878830563094
H        10.28462772182411   18.40124087480432   -3.11847220262084
C         9.83679314166064   20.35167579558026   -2.39040787649872
H        10.43510438684439   20.84347022321680   -3.14143264175816
C         9.13703117124386   21.09214293284165   -1.45397829233305
C         8.35065333127121   20.47003318192829   -0.49803305653336
H         7.79947387743522   21.05303305096334    0.22291991653508
C         8.27802613050488   19.09153884729771   -0.47091430567382
H         7.66780074006972   18.58247076831043    0.25803666856678
I         9.26443182332876   23.20061832918365   -1.49208688969272
N         8.87823554406035   16.94017705967255   -1.33635447866870
N         7.74424741045086   16.40506411170786   -0.88555009382373
N         7.88366568004796   15.13344877102825   -0.87083712537104
O         8.59650665611306   12.57229066683919   -0.86679532707863
O        10.60816094524720   13.01802677931736   -1.72735657296035
O         5.62559906457670   13.28943599528218   -1.71350226483480
H         5.08544514391094   14.06476726142477   -1.51784417597201
H         6.01831084106723   13.41711716964856   -2.58182184537896

