47
CSD_code = IWEZAM | q = 0 | S = 0 | Stoichiometry = C26H16N2PtS2 | MND = 4
C         7.60637881729874    9.49596213031917   -0.67109248822528
C         8.19770917357897    8.54581972426158   -1.47977596469606
C         8.72699480964844    9.13463286113630   -2.66006865368767
H         9.23865063125771    8.57619943892249   -3.42577478680538
C         8.53796625488471   10.47731437521481   -2.73470055557083
H         8.84150681945920   11.15173523052668   -3.51234165627564
C         8.83131341129168    6.44220975787929    1.87619785078430
H         9.52376138421108    5.72163866027346    1.45479952502463
C         8.58270857907542    6.44689347439192    3.25191147295248
H         9.07459799072629    5.72600023939560    3.88595202240155
C         7.68657960876413    7.35294145318578    3.75167780333033
H         7.42118289901976    7.36173797244400    4.79892099731066
C         7.12294604035888    8.32039143086683    2.89343227969524
C         6.24881591615796    9.31592285169234    3.36601060286851
H         5.96147445047014    9.30570715563709    4.40678605623582
C         5.79872044027005   10.28975282474089    2.51320879338587
H         5.12770833554544   11.05665022240336    2.87022418455972
C         6.22867896498409   10.32337891791501    1.18894487023985
H         5.90991475500766   11.13393951027573    0.55080488629675
C         7.06724783793683    9.35395175217895    0.65930567532556
C         7.48180096773202    8.28387971121672    1.51491641645335
C         8.32628491845302    4.74797212660795   -3.02630078168478
C         7.74363444720341    5.97344035438581   -2.77110864487307
C         7.25651706165537    6.56849546496665   -3.96631560484445
H         6.75816338944908    7.52281779675916   -3.99564640447873
C         7.46759329403406    5.81729295603268   -5.07773341042052
H         7.19593922878935    6.03621456410505   -6.09261100479400
C         6.97964753832742    4.56734781219614    0.90628634349173
H         6.28927773123077    5.34751656472446    1.20795316998477
C         7.18644198582724    3.46136283102784    1.73602195625127
H         6.66413462544115    3.39500614846862    2.67753220499635
C         8.08120687833270    2.50429442775351    1.33958426196699
H         8.31473745095329    1.65810566962032    1.96939229231586
C         8.68608831436373    2.60068412308702    0.06873994218103
C         9.56199760411248    1.61253711290243   -0.41590006155046
H         9.81800090207258    0.78292624253611    0.22604322841818
C        10.05342987816133    1.70257817394731   -1.69207940373042
H        10.72632301323508    0.94719199718268   -2.06952310950452
C         9.66330085083926    2.74628963828119   -2.52764015878858
H        10.01396657566396    2.76452916925592   -3.54869068447603
C         8.82475088456690    3.76361112620930   -2.09711116154561
C         8.36805512999763    3.72925298543858   -0.74093448010284
N         8.26806479312796    7.28948091258598    1.03606325717717
N         7.58098567900150    4.72102516196388   -0.25804910333664
Pt        7.94877369707462    6.65960746362066   -0.92251305023867
S         7.69023939250130   11.10190201622857   -1.38121284142903
S         8.28658664791093    4.34945746523309   -4.73798608259156

