73
CSD_code = IWEZIU | q = 0 | S = 0 | Stoichiometry = C27H41NP2PtS | MND = 4
C         3.01852153702351   -0.71228999466382    3.11161243185683
C         4.09315591200015   -1.51282115029875    2.90856157055577
H         4.02068699116123   -2.52013252369505    3.29450263269014
C         5.29787128902582   -1.19925222804771    2.21466792518848
H         5.98582528140645   -2.04275283614848    2.16194480760463
C         5.68599859039706   -0.04914714446050    1.62629992802421
H         6.67348784294471   -0.10893945093266    1.15629673223019
C         3.20688909490606   -3.09046960015259    6.51037755414517
H         4.20979267685103   -3.28191366907169    6.87307614916446
C         2.09613627351412   -3.65136810648821    7.16334372501953
H         2.23527147621587   -4.28914904187441    8.02328764747258
C         0.85051223938968   -3.35226754713753    6.68528185432245
H        -0.04204013192064   -3.74149022430572    7.15773446225384
C         0.71832633050587   -2.51507606931031    5.55764048219807
C        -0.53507977545215   -2.14739169263797    5.03355885845991
H        -1.43129369595873   -2.52802226532369    5.50360234394090
C        -0.60184532365983   -1.31571055118096    3.94997812578826
H        -1.56019595297020   -1.02197014523487    3.54581499521576
C         0.56571699961467   -0.84459519263085    3.34400207018929
H         0.48603382341682   -0.19821865869877    2.48226496269033
C         1.82021913467354   -1.19515725383545    3.79919834082919
C         1.91312422630493   -2.03267701478303    4.94997244487457
C         6.05317458666256    4.39285183185398   -0.22054860467202
H         6.87721413126721    5.10957366155328   -0.14628979028312
H         5.90526858031214    4.16530687863757   -1.27928385408824
C         4.76992343641979    4.99167735102658    0.35551864759881
H         4.28676793977948    5.63723537590496   -0.38433510435434
H         5.01025981077048    5.60695544316912    1.22604047163897
C         7.74266123724426    3.34106641988594    1.90844980225755
H         8.39064832044655    4.13661812672479    1.51911537713984
C         6.89685285493717    3.87655985409803    3.05962271093216
H         7.51250500224788    4.07009040055988    3.93630687745568
H         6.14007875854499    3.12938072397985    3.32458654276029
H         6.39473235678972    4.80092523932648    2.78532208563659
C         8.58727213925048    2.16902855550887    2.39729385825546
H         9.16576823836491    2.46685713630357    3.27051298695275
H         9.28352674802694    1.82481184777452    1.63608024344191
H         7.93664308081349    1.34361089677437    2.68368713182536
C         7.67823198393488    2.03825088551666   -0.71889571692919
H         8.18150028935919    1.21552201560334   -0.19765779780877
C         6.81701879008664    1.42502418996717   -1.81963738432849
H         7.41863576915161    0.78488986415240   -2.46212556904383
H         6.36378152052320    2.19380274192846   -2.44237434020002
H         6.02321800005824    0.82364354243570   -1.37449149827236
C         8.73229575261588    2.98417737838952   -1.28352426934610
H         9.38683888522447    2.43704041317007   -1.96056650123694
H         9.34662535088845    3.41220363883954   -0.49489043143401
H         8.27334704542829    3.79403883825807   -1.84602997706237
C         2.50212610930581    4.65505647965195    2.14951421843188
H         1.65622706988645    3.98162306776245    2.33409754353269
C         3.24961194699243    4.80980879566127    3.47116320399168
H         2.58058003019599    5.18682974555688    4.24244023211704
H         4.08297886599202    5.50453626067261    3.38044648497965
H         3.63205788707995    3.84164286061744    3.79343932367561
C         1.98677370061784    5.99396566973592    1.63314980315800
H         1.30341829920938    6.42726656082362    2.36221522375572
H         1.44958148458048    5.88059505947382    0.69443581092867
H         2.80354103804291    6.69698317207035    1.48264889158998
C         2.44445556146919    3.47883032590564   -0.52224249979025
H         2.25531958428242    4.45014980678752   -0.99753690193720
C         3.17284471341210    2.55966434030468   -1.49941174752126
H         2.52066190314109    2.27110304985253   -2.32224956515267
H         3.48914156453085    1.65141595649700   -0.97239956771460
H         4.05285761998712    3.04403152756005   -1.91650798254774
C         1.12926840008280    2.83604165088880   -0.09343061164804
H         0.57580403089827    2.49710156285151   -0.96806440080371
H         0.49859592188414    3.53191951250808    0.45465666184354
H         1.33184971448267    1.97332410437816    0.54113555120113
N         3.12364358297159   -2.32470049601197    5.46049616573765
S         2.87525566305707    0.92153964933831    2.55015175598261
Pt        4.72092092056540    1.70550007751705    1.44498939304848
P         6.56373489662371    2.78832544157676    0.57341264248530
P         3.56364404217258    3.70511492746574    0.95254442883374

