78
CSD_code = IWICEX | q = 0 | S = 0 | Stoichiometry = C32H43ClIrP | MND = 6
Ir       -1.53901203580256   13.90626871408834   16.27662281571733
P        -2.00485180147024   12.10044177899393   14.82655673508776
Cl       -3.66724597845867   13.63402080450587   17.13284541039980
C        -1.39014336331200   12.43980903747691   13.12655300748697
C        -0.21097490978761   11.87043282009110   12.65320384216952
H         0.33669412779700   11.16956091848154   13.26183283825288
C         0.29203877847975   12.17373896918124   11.40051743713817
H         1.20767992292024   11.70954092350388   11.06468037373162
C        -0.37878488853390   13.06557693489414   10.58431791732506
H         0.00349843673217   13.30604303236108    9.60360079003281
C        -1.54420394676059   13.65241203760437   11.04058496406549
H        -2.07168483135952   14.36167075269933   10.41843148065622
C        -2.05247012301450   13.36737494266925   12.30360148909429
C        -3.29809333994535   14.05849451829604   12.69695857709389
C        -3.33706988934494   14.93154055650717   13.77858698894362
H        -2.43652819643424   15.12396577768131   14.34615348466723
C        -4.51473284068215   15.57093744058880   14.12130000866065
H        -4.53425836297934   16.23178176215033   14.97404390120866
C        -5.66460080826810   15.35727050702600   13.38107859851569
H        -6.58701013339835   15.84623113064774   13.65713841260820
C        -5.62486143390754   14.52226519280333   12.27663698494938
H        -6.51456218031052   14.36558268870774   11.68343951722578
C        -4.44742357899142   13.88562456718365   11.92925668282072
H        -4.41971906381676   13.23280979864077   11.06781078033267
C        -1.02506996938006   10.61346263667320   15.39571256274780
H         0.01894687919347   10.91156759690934   15.23433798391384
C        -1.23585394225430    9.27439999081970   14.69387653853018
H        -2.22956375322126    8.88509245077787   14.91459448151965
H        -1.14463500944940    9.38433234677070   13.61090033717270
C        -0.20101236055331    8.27134013099849   15.20524235196597
H         0.80426970569599    8.62301776030245   14.95863264275908
H        -0.34603968571419    7.30827438221185   14.71060094804945
C        -0.32169449994456    8.10131959698821   16.71755629843522
H        -1.30352867921924    7.68601386677957   16.95608296818387
H         0.43317394511188    7.39647474072736   17.07238844557291
C        -0.15740307654729    9.44316259745635   17.42729446439421
H        -0.27856565737833    9.31002225908829   18.50395267732952
H         0.85118338629040    9.82556968806871   17.24938615396277
C        -1.18312491035246   10.44703477139049   16.90920930571945
H        -1.04652064796973   11.41747071689556   17.39785240323364
H        -2.18559825839096   10.09669080290116   17.15215958563516
C        -3.75410960639519   11.51921820633830   14.48399449202869
H        -4.30802541331963   12.46230592746801   14.39546051200877
C        -3.95273151444916   10.72838591097599   13.18949667118348
H        -3.48035174385880   11.23102219550858   12.34458932106976
H        -3.50803918311063    9.73672605932370   13.27604212143584
C        -5.44932434411801   10.57693266680064   12.92124824759937
H        -5.89328388492983   11.56702295829475   12.79630644717362
H        -5.60215582359284   10.01902763902283   11.99398531056293
C        -6.13404786335615    9.85919376681072   14.08021453526787
H        -5.73928089292834    8.84280469588099   14.16066789315525
H        -7.20667118529083    9.78434613796757   13.88913334740927
C        -5.88715527913846   10.60430422105636   15.38827926797403
H        -6.34990143243865   10.06502733753277   16.21750566216500
H        -6.34289054411695   11.59506737065545   15.33845869093562
C        -4.39002003819938   10.75678904127576   15.64687538210211
H        -3.94979565102485    9.76320024625200   15.74461537929644
H        -4.23726523210196   11.30606677742315   16.57551275321810
C         0.10152413425816   14.75870648909894   15.20262435700609
H         0.04194085215855   14.53942221563444   14.13754341302248
C         0.55996809183815   13.71514875963456   16.02690447454022
H         0.86497037726322   12.80238103120237   15.51799577198193
C         1.30636514219918   13.91885200818905   17.32739635990893
H         2.32824140616472   14.25229180957867   17.11440332297898
H         1.38222469561556   12.94892640873243   17.82377390191223
C         0.60964315612922   14.91180534070827   18.27410171567465
H         0.81472561953791   14.62111919311780   19.30580129668400
H         1.01369105124083   15.91549278976321   18.13437868735644
C        -0.88729323118511   14.95060646000044   18.05939787789372
H        -1.47962597139399   14.55924693778937   18.88291978975606
C        -1.50646087389196   15.85189061921676   17.20086402760748
H        -2.53143812528296   16.13752245919865   17.42771494598136
C        -0.77225367754552   16.85587119629795   16.34372323039196
H        -0.37012777798641   17.64991329134481   16.98209254253354
H        -1.49560050448149   17.32132898523966   15.67106478719544
C         0.35646664773567   16.22216462967651   15.50901534290307
H         0.45042731434306   16.77021879745815   14.56948916469348
H         1.31071828040130   16.31370747696617   16.03057576808042

