62
CSD_code = IWIDIC | q = 0 | S = 0 | Stoichiometry = C26H31ClIrO2P | MND = 4
Ir        2.15424846200758    2.93488808651651    4.14152029590216
Cl        1.58081109953906    2.08829351608999    2.08866302623230
P         4.13633683561813    3.36138541281738    2.95702270375086
C         5.44002265593989    4.39575595479859    3.81068033364034
H         4.83890322297395    5.21247202101063    4.23694950142203
C         6.07776353324836    3.66062182915917    4.98747907077546
H         5.30256365582472    3.18569430368422    5.59533534629754
H         6.75346597861754    2.88220286781044    4.62949755074108
C         6.87586293890991    4.65070429454233    5.83231858954156
H         6.19899672458885    5.40534990318923    6.23866970001377
H         7.34125466837041    4.13173587560347    6.67262087790881
C         7.94702441179963    5.32699781108597    4.98040693492311
H         8.65859566607134    4.57523492742347    4.63009643596247
H         8.49855578185452    6.05114835907821    5.58293178008051
C         7.31916021044903    6.02617201597567    3.77752101771442
H         6.65938619886967    6.82257221397752    4.12971140713392
H         8.09878588476067    6.48371265039485    3.16456663602444
C         6.51597922483093    5.03488415160092    2.93550414813303
H         6.05968484513580    5.55171382344752    2.08732928548394
H         7.19355969291776    4.27782662504588    2.54101357945064
C         4.89172696712984    1.75737899074939    2.39407349579203
H         4.23169755885654    1.44891892923630    1.57117772388351
C         6.33764996921543    1.76813672577017    1.89929348182822
H         7.01378426988639    1.97193539229181    2.73136304416428
H         6.49713957355299    2.53661348006017    1.14051386489191
C         6.68303777081520    0.39404442279016    1.32483676977521
H         6.02546332669550    0.17434401693116    0.48031514392436
H         7.71111548617228    0.39778797911891    0.95515718122843
C         6.51684779283146   -0.68514831163563    2.39082927698836
H         7.22429233080597   -0.50232438135470    3.20366535227178
H         6.74428877783743   -1.66474493052695    1.96602565034167
C         5.09490098084912   -0.67541936588086    2.94555907577832
H         4.39243512723354   -0.93481924633898    2.15048038257102
H         4.99808563538956   -1.42424794434865    3.73411061702890
C         4.74248537859436    0.70351999172702    3.49629279342697
H         5.39721183991600    0.93802839743235    4.33803714764579
H         3.70983737087166    0.69973558231283    3.86549068267919
C         3.85006533803740    4.32623729216500    1.42944429424478
C         3.16868749038508    5.54650827456228    1.53025869952412
C         2.93751991113932    6.30445752339657    0.38967814026838
H         2.41220270334400    7.24420148851355    0.48597317863500
C         3.35182865207688    5.86061470301244   -0.85270967694043
H         3.16230983234615    6.45772562150023   -1.73212581073883
C         3.98796738158787    4.63724948169503   -0.96115076117739
H         4.29213993366918    4.26679305758225   -1.92899634332571
C         4.23213754467803    3.87793968566919    0.16918570594173
H         4.70946971238115    2.91914702965455    0.05108425699001
C         2.62835542050679    6.03997603798582    2.81726751292997
C         1.37091762384597    5.60807016945650    3.24230908468210
H         0.78489430697966    4.96584947852285    2.59965533991803
C         0.82832930827871    6.10384337478413    4.42096037336557
H        -0.15446970715733    5.78412664894056    4.73292506389076
C         1.53589983046766    7.01747157379443    5.18283556214106
H         1.11685259902349    7.39464122054651    6.10334946108217
C         2.77284021505246    7.46660248588627    4.75072133517460
H         3.31545661304911    8.19890777699919    5.33075686506092
C         3.31194935848751    6.98919224449733    3.56898760290704
H         4.26256209851213    7.36294016037223    3.21383223951391
C         0.52284544575434    2.26036900735570    4.78815471700986
O        -0.47672328342222    1.77645991837592    5.06797183887351
C         2.67021638502932    3.71875758855098    5.74315105596043
O         2.96798343722394    4.26091178447916    6.71742035876376

