101
CSD_code = IWIRUD | q = 0 | S = 0 | Stoichiometry = C52H43CoN4O | MND = 5
Co       -9.10798315110080    1.90045955972957    3.70168983384107
O        -8.34058736034091    4.40921549102039    3.32678820903314
N        -8.77094997941857    1.03091147856389    1.99233516130820
N       -10.66989691523370    2.76563749044649    2.92380770556068
N        -9.50479388465604    2.69830608700912    5.43260419151543
N        -7.83156368864518    0.71205158621262    4.57139290447755
C        -7.84881982623108    0.05893940766801    1.73198658958907
C        -7.63853013572261   -0.07439008083264    0.32209889024991
H        -6.93594386182302   -0.74578684520921   -0.13169235629444
C        -8.46351417123372    0.81385530748312   -0.27879172340756
H        -8.57476774403507    1.01770052958262   -1.32564065716167
C        -9.20181163219314    1.45757915980106    0.76588412488895
C       -10.30304653742415    2.27419080431530    0.55054666507765
C       -11.04348703526913    2.77867131948244    1.61343608981547
C       -12.32815249833259    3.39451672837673    1.45832970608434
H       -12.85810994673084    3.47838750507394    0.52945915902920
C       -12.71573838372938    3.79332831108694    2.69028213049433
H       -13.63000493185090    4.27315411493800    2.97969390098654
C       -11.64573465911218    3.45589300168958    3.58409172333527
C       -11.56197071925071    3.91581245736475    4.89111123263033
C       -10.47066262919182    3.62143345388180    5.69985508599676
C       -10.22631486753110    4.26004562792015    6.95911603075711
H       -10.82631414134804    5.04690889508945    7.37264824452328
C        -9.10645815013490    3.69902391741038    7.46792230905929
H        -8.59967403339617    3.93270595439303    8.38354714057409
C        -8.69435908979688    2.69308927605706    6.53443796129834
C        -7.71136716547388    1.74766157404041    6.79202323904065
C        -7.42039008218298    0.74500207667704    5.87208533574458
C        -6.63552022721848   -0.41037977469018    6.18508651180751
H        -6.23834835359620   -0.63579883846289    7.15555978277679
C        -6.54643243165936   -1.13809424397300    5.04834018141826
H        -6.05977534699321   -2.08149627937663    4.89693792189543
C        -7.24483488168659   -0.40323753630886    4.03640116942546
C        -7.19463528183062   -0.71576323384211    2.68408836220770
C       -10.74191050513044    2.57791750442418   -0.82311131857759
C       -11.10583323512334    1.56855508427569   -1.71004549754349
H       -11.07894177046311    0.53923789734887   -1.38257298171980
C       -11.52065516791194    1.87737383551251   -2.99054074429642
H       -11.80602234976589    1.08352458285255   -3.66660362920793
C       -11.58027727467675    3.19720695312141   -3.42515750721092
C       -11.21983818658042    4.20170391369693   -2.53705067919702
H       -11.26030743053609    5.23430719899601   -2.85398855628047
C       -10.81080682629199    3.89971050787622   -1.25146498856804
H       -10.52970106898549    4.68959836386457   -0.57020245862996
C       -12.03113459560404    3.51324968306568   -4.81879521673994
H       -11.98745288111373    4.58249491938132   -5.00970784610196
H       -13.05565075241743    3.17495107095280   -4.97137177015452
H       -11.40187885098153    3.00301884628970   -5.54707906927951
C       -12.62209641839133    4.79104014090385    5.42339689294980
C       -12.92387936674752    6.00433397201114    4.81411404947633
H       -12.35885309391760    6.31528323840122    3.94769399720383
C       -13.92020516013504    6.81693678110453    5.32286938448369
H       -14.13745062418356    7.75879297105856    4.83886703530129
C       -14.64383470102906    6.44145555376416    6.44680440905366
C       -14.33634049778568    5.23007846941981    7.05694717546669
H       -14.88822354216899    4.92314834572587    7.93436687668807
C       -13.33761694469156    4.41750000490944    6.55806125842986
H       -13.11189043332888    3.47708554009410    7.04007405370397
C       -15.73752313912221    7.30734339293942    6.99412188981386
H       -15.75094032424831    8.27658752050974    6.50202299463062
H       -15.60687875669364    7.45894577523956    8.06443911480716
H       -16.70606926334923    6.83058243704358    6.84230423947610
C        -6.99911892403572    1.75071698673641    8.08186486190256
C        -5.60884670717392    1.83170070253651    8.11391694935262
H        -5.06015127887653    1.90246320788150    7.18554255574087
C        -4.93227732951325    1.83402995352455    9.31717545534235
H        -3.85363676817879    1.90415133260398    9.32451245146438
C        -5.61844874077383    1.74564659100310   10.52374144881269
C        -7.00319643035775    1.65314309251864   10.48928419497781
H        -7.55588000315563    1.57419306176384   11.41493213670709
C        -7.68677659988847    1.65702604124601    9.28738842427307
H        -8.76334856041014    1.56759490974286    9.27802189158582
C        -4.86906790269161    1.75330818660916   11.82111948419432
H        -5.53992965757907    1.58875414980218   12.66047586741324
H        -4.36785735678764    2.71085826375018   11.96136151454140
H        -4.10595181985809    0.97621717929537   11.82560339673859
C        -6.38762619374812   -1.86236304253036    2.22891357254928
C        -5.02334288725894   -1.93237561850503    2.49084547065977
H        -4.54378692529730   -1.12653025195892    3.02787384452452
C        -4.27798521893885   -3.01152390593000    2.05335093575607
H        -3.21780051128019   -3.04562320602686    2.26171044482016
C        -4.87108911479061   -4.05009972143072    1.34789152808060
C        -6.23449734706088   -3.97596085395323    1.08417766280884
H        -6.71308608001682   -4.77514805838761    0.53579503074882
C        -6.98272977622750   -2.89755113671117    1.51257595739063
H        -8.04206523585463   -2.85487496539660    1.30444234046405
C        -4.07360367228076   -5.23320176525789    0.89063935505619
H        -3.00709751613576   -5.02837727232392    0.94184982089224
H        -4.33272849320845   -5.50030381582193   -0.13219568661407
H        -4.28704362694406   -6.09503370865220    1.52369759233071
C        -7.92229021355834    3.29255483676109    3.29288751749126
C        -6.47385560727163    2.96870777332944    2.94675814795201
H        -6.30309876102090    1.89425263265865    2.88147258258520
C        -6.15834376223868    3.61134131488522    1.59496921140110
H        -5.11272392783248    3.44790822747959    1.34361586931253
H        -6.35055691959231    4.68080961240829    1.63367496457461
H        -6.77627981190366    3.17444376813348    0.81378244991901
C        -5.60443421110536    3.55176369820293    4.06348785078722
H        -5.85201465530350    3.08799308092440    5.01532401435311
H        -5.76996807015192    4.62321318483275    4.14753119147141
H        -4.55365647593694    3.37257674685771    3.84583383211957

