105
CSD_code = IWISAK | q = 0 | S = 0 | Stoichiometry = C52H43CoN4O5 | MND = 5
Co        7.79997487230208   11.64508848439445    3.47701605670358
N         7.11679448915205   13.39320377655491    4.06689856757573
N         8.61222887276947   11.39372993541293    5.23729269497746
N         8.82115653138123   10.12440556113610    2.77021388722681
N         7.08029128588432   11.96030983877899    1.68230129020934
C         6.48393968992875   14.33506755689489    3.30255498187011
C         6.21491094271886   15.51449983023192    4.06951867201920
H         5.76706429689492   16.40892127477229    3.68376404339068
C         6.62546567292110   15.25648411313687    5.33096569476764
H         6.56534201922526   15.88913147578325    6.19424026024465
C         7.18465954963483   13.93841899616437    5.31832675988255
C         7.68216117761611   13.30990743678546    6.45161938176890
C         8.34288876879273   12.09261495815931    6.37952879046428
C         8.98784683549052   11.49107770479170    7.50950810784809
H         8.93562131378478   11.86387761038887    8.51361563224710
C         9.67381763266460   10.42730960490023    7.03896238604321
H        10.30038435646212    9.74496014891687    7.57869948596626
C         9.42802974312601   10.37182280710242    5.62747360836063
C        10.02349547126790    9.43652273138139    4.79399123051616
C         9.74074209623584    9.36867151196240    3.43773362475076
C        10.29588154370188    8.36523822745954    2.57664362829845
H        11.05034700387909    7.66003701273234    2.86472272971521
C         9.66756147013933    8.48772313352548    1.38739328701783
H         9.81457241557878    7.91851375641732    0.49050743323010
C         8.73334146331941    9.56545471927108    1.52902574825101
C         7.85664308365397    9.94509658502588    0.52164496666050
C         7.06408999477079   11.07791818066065    0.63736400261467
C         6.18001968523467   11.52931264957701   -0.39487305288829
H         5.96088817591753   10.98929914660421   -1.29479190636438
C         5.70530686335172   12.73116824056244    0.00194653049485
H         5.01568282526705   13.37698501233815   -0.50494156860472
C         6.28473648082262   12.99721693129544    1.28432871542062
C         6.04605674791359   14.16666313705077    1.99562042828936
C         7.54212567770645   13.96619870973836    7.76809730794324
C         6.72322220654074   13.40616751506657    8.74668012802604
H         6.18924544202806   12.49218132384727    8.53109294756155
C         6.58589576149221   14.00880747425546    9.97743225578421
H         5.95019268360837   13.58460148282969   10.73855483129171
C         7.27279592547255   15.18870693598678   10.26991233872436
C         8.09747279297498   15.74851382764815    9.30094504943574
H         8.64894149796046   16.65541976809623    9.49442283163757
C         8.22348415169018   15.13841149904726    8.06430984803431
H         8.87531536864764   15.57547422049203    7.32174606071093
C         7.73244391681133   16.88839811172390   11.87202073805358
H         7.41886624136851   17.10724275199433   12.89158813109155
H         7.44644361586810   17.72046740008257   11.22014838232678
H         8.82030901210072   16.76538224913910   11.84774439173483
C        10.95334973449170    8.44784478043475    5.37878192546382
C        10.48309153707634    7.46585645350431    6.24827094235395
H         9.43022254839099    7.43180441585970    6.48498753336425
C        11.34427974153398    6.53753470624050    6.79003257343563
H        10.98837110426912    5.77016572385507    7.45930444360781
C        12.70575206483955    6.56817801891533    6.48202386247972
C        13.18157303454460    7.54724607384968    5.61764645506466
H        14.22776528785065    7.60290020292460    5.36012191542506
C        12.30651332504503    8.47199807215106    5.07259277338233
H        12.68611326644835    9.23118713998113    4.40400807858050
C        14.84870390447829    5.58062249442252    6.79803474568136
H        15.24702189278930    4.74022850631394    7.36460749522477
H        15.34194671353996    6.50217354841099    7.12491323773347
H        15.04458244430238    5.42226486319386    5.73224728931797
C         7.79752509228849    9.14152483274538   -0.71391142608102
C         7.40700587172963    7.80929371335408   -0.66959299702673
H         7.13667524314956    7.36991143544249    0.27953746186882
C         7.34498606860577    7.04104498791132   -1.81924862701181
H         7.02961952585118    6.01219965427164   -1.74337266033586
C         7.68670139013825    7.59877214673868   -3.04634365812205
C         8.08748872931584    8.93524123267943   -3.09606366281055
H         8.35649203517424    9.35385938178650   -4.05314337447405
C         8.13796470204597    9.69377286809182   -1.94764433921195
H         8.45932093384717   10.72374079228984   -1.99724412534697
C         7.27684229367268    5.58916956607204   -4.25462125330508
H         7.33735191026220    5.27685538326213   -5.29597888955374
H         6.24889108638626    5.46280289148938   -3.89894049327532
H         7.94864811417173    4.96894379925185   -3.65205781113005
C         5.26167348373491   15.23725959220890    1.35096038486837
C         5.71849834088029   15.84674379889782    0.18953926357790
H         6.66511737491599   15.54022044135466   -0.23119258139502
C         4.99134364842592   16.84742442698851   -0.43120915726891
H         5.38471324608083   17.29968359651115   -1.32810575114410
C         3.77384557412747   17.25368816208869    0.10346704753636
C         3.30609904354001   16.64090851663624    1.26755677370937
H         2.35758384627645   16.96162811787401    1.66866456271260
C         4.04055116278809   15.65073742447164    1.88129756171574
H         3.66263563304535   15.17753864799009    2.77576780387082
C         3.38410535071873   18.87131452665782   -1.59860882172362
H         2.60106447218674   19.59262761530477   -1.82717315688606
H         3.48239565591183   18.16889884876452   -2.43287335584004
H         4.33183236634526   19.40075623187542   -1.45555198872281
C         6.31858077098225   10.61697136828573    3.98663290071945
C         4.91976236742781   11.21089948843287    3.87871766657482
H         4.92680393785055   12.18183434866465    3.38447842232145
C         4.39168518352846   11.37661131378787    5.30600086502724
H         5.00797194610332   12.08366635620316    5.85647867155022
H         4.40563724391030   10.42115288576206    5.82535841859486
H         3.37007837685886   11.74953740785445    5.28015061564982
C         4.05895368843019   10.24136647196033    3.06681796498881
H         3.03613043398275   10.60817722758280    3.01688567603275
H         4.06080358780725    9.25776912013843    3.53028101783632
H         4.44595324029796   10.15028503406541    2.05433048713847
O         7.06941385437743   15.70055207686113   11.51644131290092
O        13.47016629206441    5.60601028944275    7.07276795563790
O         7.66709904254147    6.94025716455156   -4.23921206575397
O         2.97150353102003   18.22155383227670   -0.42155262892906
O         6.51980004153624    9.51526262093775    4.39752537807098

