58
CSD_code = IWISOW | q = 0 | S = 0 | Stoichiometry = C17H33N5NiS2 | MND = 5
Ni       -0.69736478251158    2.84386838865832    3.54933852609368
N         1.18270236719961    1.73196074863010    3.53102821110711
N         0.22913504421567    3.72025912527889    5.49802660430052
N        -1.32557465992501    1.29837492408921    4.83171093078463
N        -0.02098375894206    4.19794562120814    2.57233771080949
N        -2.41486869188215    3.33219080971230    3.07797875349829
S         0.18234162460281    6.86530517808775    1.92557823375940
S        -4.34109953653306    4.87123995635007    1.85610458589821
C         2.04150517603014    2.19251340973493    4.63400800039112
H         2.03058838990833    1.44691880950368    5.43247657832451
H         3.08162792481960    2.28138802635199    4.30512586136187
C         1.65609816000375    3.56345653106271    5.21150801206192
H         2.27395486489971    3.71350309583555    6.11132254627300
H         1.91830188919955    4.33190854700266    4.48105709273471
C        -0.24471708316680    2.81916673443977    6.55267191975460
H        -0.54397706429511    3.37737771527698    7.44512202455406
H         0.56810541212237    2.15727989175668    6.86334065261588
C        -1.46874547732480    1.99147939650420    6.12430675889802
H        -1.67361187029201    1.27034116584058    6.92975559545593
H        -2.32486615478057    2.66243227716613    6.03333625876275
C        -0.28138614350345    0.26050161051576    4.90851640514295
H        -0.72071208294084   -0.74029094346580    4.87832058673968
H         0.23770957149361    0.34060575339595    5.86572731939496
C         0.72830530385239    0.35587738693713    3.76260250457336
H         1.57404478896388   -0.31178799611157    3.99028203095884
H         0.25187845306541    0.00650738421972    2.84774600360338
C         1.86686585600115    1.85388589668002    2.21862555413044
H         2.22668371331804    2.88687798242107    2.17905695530935
C         0.88457733274392    1.65802463107446    1.06121721208156
H         0.73240429918882    0.60574387754610    0.82955273377771
H         1.27090605104086    2.14603390821961    0.17109187622408
H        -0.08012183154107    2.11957642621428    1.30433297113104
C         3.05644545055430    0.90535516839933    2.03425300056889
H         2.72949576106679   -0.12768717328547    1.94040276818652
H         3.77192496558171    0.96852564872773    2.85107085909041
H         3.57465112990306    1.17523047724971    1.11796109535869
C        -0.09060477400645    5.14316991256100    5.75108980587849
H         0.27514841809440    5.68667687677711    4.87420916941109
C         0.58897871377282    5.74182143377250    6.98805289439254
H         0.29137383449243    5.23752636571020    7.90527819553849
H         0.29565418244722    6.78449415073202    7.07211207264948
H         1.67230689232089    5.70711866187615    6.90705893579477
C        -1.59947210648844    5.35810274492011    5.81651269175781
H        -2.07415854147811    4.86349355912206    4.97030003379381
H        -1.81577799680631    6.42074919765237    5.74978160674101
H        -2.02539482867505    4.98290925822204    6.74467993659689
C        -2.63778776667388    0.73292522430233    4.41916656391207
H        -3.32397377918636    1.58467260147638    4.36821905032402
C        -2.54749634759358    0.14503250869902    3.01266228166277
H        -2.00490369497007   -0.79790631534236    2.99583591328456
H        -2.06029066508150    0.86257752576245    2.34959368187872
H        -3.54934834065819   -0.03367562199422    2.63160131013007
C        -3.24373310064938   -0.28951380100101    5.38656290937810
H        -2.60338774111069   -1.15584081248599    5.53936009573151
H        -4.18000396449389   -0.64314485002323    4.96296866437438
H        -3.46703694308780    0.15238529891840    6.35397067090951
C        -0.03311085462735    5.35366346000231    2.32157991036232
C        -3.16930498768036    4.04717222910480    2.51130887178598

