68
CSD_code = IWIWAO | q = 1 | S = 0 | Stoichiometry = C21H40ClN2NiOP2(1+) | MND = 4
Ni        7.21971571890316   27.00891290997358    0.22257102734514
Cl        7.14266119127421   25.35343376438746   -0.99036127299446
P         7.87968080068323   25.58153792932162    1.76651883005045
P         6.60597864277802   28.10581570120321   -1.58615742954802
O         9.56572955476951   30.37954026733165   -0.01421221554498
N         6.14683522328447   28.94264698738349    2.08612099527768
H         5.25350973447926   28.47606486844101    2.13845587428881
N         8.19277998544011   29.39133472295374    1.54554909151803
C         7.18477508410082   28.52036974173073    1.33782718724678
C         7.79508421721633   30.39195533057739    2.41502910825955
C         6.47040794841214   30.09642409935688    2.76996936753709
C         5.75713211008176   30.89893058772968    3.64588684173290
H         4.73931779579338   30.67100829642489    3.91887146659429
C         6.41282972587207   32.00604611248338    4.15022304677143
H         5.89497172028359   32.65911011810091    4.83438600370171
C         7.72846380477294   32.30346078245771    3.79402723764509
H         8.19658137912380   33.18132587124767    4.21003822913228
C         8.44514760387660   31.50586271594720    2.92205188667561
H         9.45703668648789   31.74682141063008    2.64163508329351
C         9.47457723453507   29.32781418418159    0.90663911538123
H        10.27220071441290   29.40859878858414    1.66549094874124
H         9.55240838197783   28.34445125769146    0.40101623682097
C        10.86302473821732   30.55303629615618   -0.54227307210421
H        11.58482085866549   30.77407145312021    0.25090481374345
H        10.80222152008070   31.39755580137161   -1.22382492982904
H        11.19096175438110   29.66134867309716   -1.08622528073321
C         8.40480042581254   26.30279761587119    3.39450423032820
H         9.27079234819946   26.93809271468838    3.18294908200993
H         7.59941551791036   26.96373321821133    3.72814758189473
C         8.74527381994100   25.31411272505662    4.50177861187927
H         7.88396984539904   24.71035514297639    4.77404982911340
H         9.06205148817962   25.86097299091810    5.38757263190867
H         9.55751123897205   24.65209902912055    4.21421097262494
C         6.62053338161061   24.31916591174058    2.20355185525594
H         6.38499516969070   23.77694039267540    1.28410460896908
H         7.06748164247102   23.61631605233906    2.91049721546599
C         5.35729851150182   24.95224633742435    2.77340696954621
H         5.55963396257720   25.46701943778403    3.71051350201207
H         4.60237619436093   24.19202874420552    2.95835182433902
H         4.94788605323253   25.67051598278604    2.06181963433032
C         9.30878581164477   24.54241615450610    1.25972357006969
H         9.67570013882377   23.99818152011839    2.13222570161388
H         8.93663254229589   23.81872640934298    0.53100459183674
C        10.41303330244034   25.38464284194016    0.63330442543115
H        10.00867612253015   25.94399653088698   -0.21318233984361
H        11.21596988435586   24.75000660332160    0.26695619508679
H        10.83232673746423   26.08611851552851    1.35290126238509
C         4.89403000538631   27.57744490304804   -2.00061587374004
H         4.44560963104655   28.28721904514719   -2.69808259388216
H         4.96387402776721   26.60333075126087   -2.48985377484676
C         4.06826917108982   27.45961541017549   -0.72454672688928
H         4.60504638804497   26.82273868513213   -0.00947851795146
H         3.10107046623533   27.00587009057950   -0.92594340650650
H         3.90156824647626   28.43714089780657   -0.27419660153375
C         6.49996214266367   29.95052250682678   -1.46560794429443
H         5.73725041977060   30.16366682013465   -0.70970668028168
H         7.45444649872408   30.31087880931084   -1.07264562213895
C         6.16684149052530   30.68484469687818   -2.75793105661665
H         6.97933133693119   30.61221525929612   -3.47549068783140
H         6.01013250199260   31.73937663048137   -2.54086396204130
H         5.25956792468159   30.30205674069958   -3.21971660753651
C         7.53070398747305   27.79289321408900   -3.13950443681651
H         7.44407437685926   26.72717669832685   -3.36335890468052
H         7.04444410024270   28.35509926961177   -3.94015853699523
C         8.99721633778559   28.18048737052504   -2.99885236605015
H         9.10249067217808   29.23435585288602   -2.74987597929094
H         9.53256638750774   27.98825773150094   -3.92552145685563
H         9.46080561728451   27.58804507296316   -2.20969841046051

