49
CSD_code = IWIYUI | q = 1 | S = 0 | Stoichiometry = C18H26AgN2S2(1+) | MND = 2
Ag        0.00023115848245   -0.00019170860282    0.00022763219921
S         0.06547638334439    2.41772137926156    0.22286627354009
N         4.32225708900071    4.31527211620031   -3.57513364536823
C         1.28091481692452    2.90257074673921   -0.87853804275337
C         1.62519282272484    4.26238613946895   -0.96587379762847
C         2.59619112152360    4.69689809599816   -1.83163250444905
C         3.26945913837652    3.79477364064677   -2.65906251874418
C         2.93853849326470    2.44456788935127   -2.59172905729675
C         1.96538676238413    2.01358672675747   -1.71983369235618
C         4.93667773319123    3.25807304460859   -4.39652494141850
C         3.72200844525749    5.30856436128364   -4.48859851673705
C         5.38855484577869    4.94560050458827   -2.77050058039967
H         1.11028410945065    4.96536518216559   -0.33122087129158
H         2.82414973249686    5.75212697665480   -1.85140694080345
H         3.42252680308154    1.70363376347633   -3.20546680248336
H         1.71629388614845    0.95166186533876   -1.67651363774337
H         4.18419215007993    2.77821016816943   -5.01929263508339
H         5.69493205499430    3.69836457566933   -5.04291684869010
H         5.41189976627524    2.51352988140758   -3.76109167934042
H         3.30011151021730    6.13812115600294   -3.92755936276802
H         4.47641165206905    5.69387371175075   -5.17356924102498
H         2.92282701532554    4.83872855115926   -5.05974899256432
H         5.80239747890344    4.21168199220327   -2.08087886881161
H         6.18044221067520    5.31752316888307   -3.41933940785235
H         4.98980398754572    5.77377335215048   -2.19045200900547
S        -0.06571333406756   -2.41763621963358   -0.22317073452528
C        -1.28042788417335   -2.90262358465292    0.87904553440544
C        -1.62516740973154   -4.26234366160961    0.96588606370823
C        -2.59636986845484   -4.69682365766924    1.83143461709920
C        -3.26961323984366   -3.79470724374951    2.65889070307543
N        -4.32224860253535   -4.31527029711026    3.57513438199882
C        -4.93669219870781   -3.25808829676578    4.39653528876200
H        -4.18417187867046   -2.77823785255778    5.01926308571016
H        -5.69490620749678   -3.69840529169715    5.04296408939816
H        -5.41196508282916   -2.51353177826984    3.76113742185245
C        -3.72197517248628   -5.30859836153491    4.48855729994143
H        -3.30006767034816   -6.13814563982878    3.92745699012419
H        -4.47636510439012   -5.69393142025269    5.17357282268616
H        -2.92277650832695   -4.83870453956959    5.05966877777259
C        -5.38858120122099   -4.94560515087332    2.77054949358323
H        -5.80250845898928   -4.21173355932120    2.08093377280914
H        -6.18042806775337   -5.31753209155242    3.41941014161043
H        -4.98990187327424   -5.77379017264348    2.19048273573221
C        -2.93879140998638   -2.44447467569612    2.59145543611528
C        -1.96541808850277   -2.01353549133118    1.71980468982006
H        -1.71629180412719   -0.95163385911615    1.67653440496491
H        -3.42238235307019   -1.70362945582520    3.20560034220919
H        -2.82406661516889   -5.75211873628799    1.85146925709179
H        -1.11033113336721   -4.96531624379035    0.33117407292709

