61
CSD_code = IWOFEH | q = 0 | S = 0 | Stoichiometry = C29H25AsCl2N2ORu | MND = 6
C         4.27064638841578    7.18354567654201   -2.01310566087645
H         3.54301003784417    7.90042819512248   -2.38531265006449
C         5.03697682502791    6.43653168968055   -2.88860830462649
H         4.93031785873798    6.58526828555577   -3.95118638153415
C         5.93852718328228    5.51662653083450   -2.37785126085109
H         6.56144265569942    4.92703356644729   -3.03305472229945
C         6.01763568326382    5.37520615281744   -1.00202087065931
H         6.70071054989612    4.67340270690882   -0.55014222247935
C         5.20658884501578    6.15480831317793   -0.19699815490354
H         5.26841712770447    6.08041525061177    0.88295071847242
C         2.11828749295976    5.45953776279426    0.70715045792482
H         2.04728236355072    5.61028603868008   -0.36437324788128
C         1.73827678787754    4.25401875702710    1.26911598150247
H         1.39558533067133    3.45413648312946    0.63188379136213
C         1.80152834639712    4.10004669519077    2.64456809465639
H         1.51170054684090    3.17259856608887    3.11389635406032
C         2.24291948167703    5.17574882168712    3.40056497258623
H         2.30967554034224    5.11277602570152    4.47495862069018
C         2.59855334570810    6.34886681253963    2.76195018047748
H         2.95785478914881    7.19909307589758    3.33000306009232
C         5.76368259685277    9.72695645598215   -1.55574867884008
C         6.83639344608479    9.03011476519831   -1.00168327860103
H         6.84267699964560    8.83343364488513    0.06731215838527
C         7.87084312154289    8.58312402357390   -1.80338110671196
H         8.69913145002156    8.04488567401077   -1.36488106813835
C         7.84192026789923    8.82122364554427   -3.16850315240444
H         8.64862652464099    8.47027939084929   -3.79543881973837
C         6.77675636015376    9.50625599016030   -3.72839469125628
H         6.75178533912851    9.68883042292036   -4.79323768872425
C         5.73829195998909    9.95287529140611   -2.92793781079656
H         4.89476758818711   10.47633419286584   -3.36706612405845
C         5.08563531811603   11.39718202189091    0.87520767414895
C         6.41450001194445   11.79731476464744    0.82550087627177
H         7.06969760590058   11.40326572074919    0.05570420461633
C         6.90845774384776   12.68887253348618    1.76379489919525
H         7.94606830834721   12.98875242415783    1.72368916435548
C         6.08023900096470   13.19183102427083    2.75171414159016
H         6.47075538618434   13.88143732305612    3.48569068475441
C         4.74949934197424   12.80864141566144    2.79893370470639
H         4.09936001841821   13.20099292329182    3.56751913683440
C         4.25638385226703   11.91793713297125    1.86377331649080
H         3.21483839587479   11.60801280085357    1.89412999247128
C         3.33915888983119   11.53875301075269   -1.42728197359184
C         1.97107354777194   11.45184519057353   -1.64640954993706
H         1.42905099804940   10.58288511307887   -1.28844618661250
C         1.31085122972612   12.46049152586997   -2.33075930374545
H         0.24673416407305   12.38661301415153   -2.50097608983198
C         2.01299966723422   13.55956309542117   -2.79333006128716
H         1.49823699594099   14.34596616660033   -3.32590894072926
C         3.37865200505969   13.65643087451084   -2.57067288468849
H         3.92536709615925   14.51752698609887   -2.92784191552215
C         4.03876882334739   12.65279076847404   -1.88686938838013
H         5.10799959439382   12.72065951905986   -1.70013648030373
C         2.06104894736828    9.20990377554671    1.63977890884453
N         4.34964280278826    7.05149142982367   -0.68692637997113
N         2.54284140824265    6.49465636546203    1.43524987520227
Ru        3.18070069415481    8.22411044395467    0.55938999704041
As        4.26468758163416   10.16729103300271   -0.39382307554280
Cl        5.04312138507056    8.37831547202498    2.06846569023656
Cl        1.39764416476978    8.02962943327004   -1.01980424751040
O         1.30267218633161    9.76594779345265    2.29671571618652

