87
CSD_code = IWOJEK | q = 0 | S = 0 | Stoichiometry = C40H39N2O2PPdSe2 | MND = 4
O         8.77365118299413    6.32614883321430    0.27716801140848
Pd        7.79039474933789    3.94024938428447    6.16210971758479
Se        6.34581503566468    2.46816306137348    7.55129040292580
Se        8.96473520216828    5.37228302106531    4.62998651794825
P         8.07734818694754    5.30075239817084    7.88610246697415
O         6.41568871194579    0.73990881056015    3.90274219059820
N         7.51300973869034    2.53184431045046    4.62527321378100
N         9.81823790327880    6.09516229158860    2.24565610957970
C         4.97778682904115    2.86923769867749    6.27975650745342
C         3.77575828435774    3.42896057863952    6.70217753232068
H         3.66863752452327    3.70674691324759    7.74084808986072
C         2.73829699756644    3.61707992496876    5.81003181833342
H         1.81395223879482    4.05911940477791    6.15389162170315
C         2.86911284163868    3.22796755338322    4.48504771709671
H         2.04947116812237    3.35842868909556    3.79449801651986
C         4.05699648846719    2.67100673145973    4.04746302652031
H         4.18050990629694    2.37221727818083    3.01672026393415
C         5.11458943153638    2.50616637735608    4.93020416227209
C         6.38930797811732    1.94643935254455    4.47836995906204
C         7.78900605321707    0.38422415698443    3.75104652250346
H         7.96002877145502    0.09187698392969    2.71297760269365
H         7.99608553769080   -0.46724512362202    4.40739731961608
C         8.57962441419362    1.65871251609282    4.15285002164676
C         9.55006934252802    1.45182085856060    5.31942675037386
H        10.37427793508517    0.80498608349333    5.02766376253590
H         9.02483396548458    1.00455010453974    6.16961483803058
H         9.95611413451392    2.43612151886697    5.61335003065843
C         9.28836638644874    2.27392568534368    2.94597378925710
H        10.05800085824457    1.59413432014899    2.58697837837648
H         9.74836160581889    3.22304297809151    3.22155613992312
H         8.57451642483866    2.46222312018561    2.14499420895226
C         7.40095681530893    5.63944859024982    3.62995066740024
C         6.15595354035408    5.55355263807337    4.26420081306204
H         6.09675142072028    5.33961708450893    5.34445803601099
C         4.98964251381740    5.77868376866346    3.56300377190172
H         4.04159091958707    5.72252166400612    4.07865178554243
C         5.02866025885020    6.07998527542966    2.20641539720153
H         4.11103738105370    6.24574767633267    1.66209568134336
C         6.24568222805172    6.18074984372952    1.56588877289928
H         6.30286330005478    6.42875245238235    0.51641157721291
C         7.43318892648600    5.98007235321462    2.26668897288694
C         8.71310367563388    6.12954936937272    1.61760633691375
C        10.15262936971413    6.44399909531438   -0.05000626870275
H        10.32214881219768    7.42326712455499   -0.50673573732523
H        10.40968592174226    5.66130303815773   -0.76953217129566
C        10.90362922079840    6.27967475243408    1.30522882802848
C        11.80775645258281    5.04749360673624    1.32354259276415
H        12.18763125923999    4.90359507242121    2.33110090272964
H        12.64094645058421    5.17979836374083    0.63730232238740
H        11.24527060546439    4.16126018892221    1.03781959964251
C        11.69528186663143    7.52902579611907    1.68844403079710
H        12.07984273551109    7.40815936275094    2.69717345645673
H        11.04972742323559    8.40427544825363    1.67238067777408
H        12.52253254441080    7.67962320938059    0.99868295228856
C         8.72374967554065    4.38538947069820    9.31159245868564
C         9.35632629715320    3.17550941153848    9.04251917640229
H         9.38727398337058    2.81435600925889    8.00886056701594
C         9.92106959759692    2.44843517988802   10.07383034950425
H        10.40460224629825    1.50419469506796    9.87155361119248
C         9.85933600844720    2.93344971331858   11.37040599231531
H        10.29126740955626    2.36292950177053   12.17943457747615
C         9.24819860630949    4.14922975885462   11.63558104830341
H         9.21016709049752    4.52421206426758   12.64806672370266
C         8.68652280900197    4.88477295512487   10.60811230383860
H         8.21588167180707    5.83847961701258   10.80563860271795
C         6.47086873364127    6.01347529635856    8.31140345277408
C         5.65267728357488    5.48730209788836    9.30465758350065
H         6.01727318082594    4.68760107761312    9.93448037302664
C         4.36664215887379    5.97531139117201    9.45883610625940
H         3.72975849157900    5.56838438206006   10.23101018870465
C         3.88969679180797    6.96888124634316    8.61905986546883
H         2.88159167797760    7.33804916218906    8.73937798609499
C         4.69815693600174    7.48263499577261    7.61659057373419
H         4.32184564048889    8.24837026060820    6.95377058702348
C         5.98526496927654    7.00520064556330    7.45806344952631
H         6.62818154743579    7.39410208480952    6.67472570272740
C         9.26155031897651    6.67887765133010    7.87920848929758
C         9.00017799031730    7.92141801775470    8.44027108318630
H         8.02469048143649    8.13795911217391    8.85387242996564
C         9.99465599971628    8.88421205908828    8.45846646007745
H         9.79187759686606    9.85460911666674    8.88818116505483
C        11.24406169047056    8.60812329795252    7.92923001222256
H        12.01360782199671    9.36585400561284    7.94422617876762
C        11.50923033789687    7.36334722534341    7.37893175479009
H        12.48349388380854    7.14890361793415    6.96623251247098
C        10.52069279841480    6.39962468849908    7.35551312633294
H        10.70630880196202    5.41868860018691    6.92305579961428

