50
CSD_code = IWOKIO | q = 0 | S = 0 | Stoichiometry = C26H17ClN2NiO3 | MND = 4
Ni        2.12668069411028    4.77508968257924   10.71686811762745
Cl       -3.05097005858142    9.41173394709489    9.04691432222626
N         2.10529497376069    5.67333204598986    9.08298998707318
N         3.90771280938689    4.36666331669977   10.38666948556271
O         0.35389231323291    5.14015597096010   11.01508567506850
O         2.16382230566843    3.98560145176320   12.38848915796228
O         3.70695282108734    1.87241133094283   16.30313779370088
H         2.77420752011123    1.95193047991447   16.54018219026553
C        -0.38274420071193    6.02447538105185   10.46807351672577
C        -1.70575957177336    6.20125633011035   10.96619846298003
H        -2.02849923403739    5.52037235874846   11.73799537904991
C        -2.51489995022242    7.20707526941650   10.52795530849593
H        -3.50649688394804    7.33753400613456   10.93290327105698
C        -2.04033877894903    8.09820575796583    9.55515880167053
C        -0.79871590782269    7.94527066886490    9.00474014860353
H        -0.46289439610257    8.65122201035343    8.26229550649166
C         0.04330147689876    6.88149710856371    9.39639668215033
C         1.28941742514864    6.64787532695478    8.73451528486253
C         1.66575972281147    7.60128982545999    7.66003689863280
C         0.90503242611180    7.73828551713401    6.50105243195401
H         0.04020252948417    7.10722433449053    6.35400056645729
C         1.26897611667059    8.66030297776498    5.53694456355605
H         0.67699033731906    8.75726036496658    4.63907279634977
C         2.38497200742368    9.45980333964744    5.72413115104946
H         2.66400679220064   10.18187241505773    4.97168373036740
C         3.14068487744629    9.33113226604005    6.87711425025241
H         4.00888796544017    9.95476431693168    7.02828986957131
C         2.78710946056493    8.40436916688476    7.84106621782196
H         3.37251864486332    8.30501298477336    8.74359156149898
C         3.23472568852204    5.32042118435739    8.33085648844422
C         3.38267448605168    5.47495637395017    6.95459311528814
H         2.57357055181061    5.85495675931245    6.35478358487989
C         4.55955845729779    5.09699412169641    6.33605674416636
H         4.66109621465562    5.22100522216166    5.26905061639919
C         5.59610436836713    4.54955405665172    7.07423585695301
H         6.51664190284560    4.26577984208116    6.58745940647268
C         5.43942021837257    4.31460713844803    8.42691484882177
H         6.23528453730017    3.82226792886743    8.96285817823057
C         4.25150444558581    4.66549088474541    9.06540392386004
C         4.77062254426266    3.84201834373674   11.22289922802612
H         5.80227497703702    3.71260877438634   10.90186725891786
C         4.47861694711836    3.39633660834707   12.52164301618540
C         3.13551112349399    3.46664770378279   13.03189040276620
C         2.90152492863400    2.92762650851207   14.32004636841635
H         1.89023681998619    2.97185423055966   14.69923490197510
C         3.91503320657292    2.38314920646177   15.06833882905211
C         5.23477033475303    2.33700154643204   14.56575397207955
H         6.00363920390444    1.90389794846362   15.18338964312401
C         5.49531976560079    2.83112895830845   13.32447509543240
H         6.50076504023766    2.79407670548267   12.93039539142149

