65
CSD_code = IWOPOZ | q = 0 | S = 0 | Stoichiometry = C29H27N3O5Zn | MND = 5
Zn        5.02082844564018    2.42042212553747   10.38119892385184
N         4.68456860073029    3.33555394499749   12.17496120462583
N         5.55556053368198    2.82317169940347   13.09970376392784
N         3.35923768859399    1.10705806680896   10.18966260478989
O         3.85054251701485    3.77419736706135    9.55691907204145
O         5.91874718562523    1.05012690073354   11.76317369523527
O        10.38808548845780    0.01028496514455   16.14951675753223
O         6.25057751845926    1.94408230904088    8.90507127961916
O         6.95720604071201    3.38464784566143   10.37966683146830
C         1.70411636355315    4.90143758106787    8.15944645341837
C         0.88513912220285    5.60916273725425    7.30065529101593
C         0.71887010004620    6.97424326352501    7.46809067779893
C         1.38071027633841    7.62586774026924    8.49550830220813
C         2.19330987020490    6.91747865130420    9.36254846636874
C         2.35704340207823    5.54409082504698    9.20874912379847
C         3.22437901297095    4.72514690795390   10.10553684999863
C         3.25045283481114    5.06243691840998   11.45900028831491
C         4.03654246102870    4.44166303395643   12.43450200007906
C         4.12461986019347    5.08153241652630   13.80020807496084
C         6.22308648056974    1.69898330275968   12.76918669708023
C         7.29645517829499    1.26556166263373   13.68292883458456
C         7.37943972322854    1.65228788709302   15.02213632435568
C         8.41726951882941    1.21080987396959   15.81056584442136
C         9.40902719119766    0.37592815839407   15.28584584122830
C         9.32597200057775   -0.01969663842105   13.95289573502299
C         8.27588136196566    0.41852137545353   13.17096944383442
C        11.41403815468466   -0.83912986877152   15.69101088948668
C         2.80782072304490    0.69847113277184   11.30274323714989
C         1.49990802697232    0.19861872658891   11.38737991672436
C         0.73943672487964    0.14534340766644   10.25146872810911
C         1.30427493556213    0.56272174731983    9.03086588920943
C         0.59305178168403    0.53421671845036    7.81319707461072
C         1.19141130959769    0.93984647613343    6.65369206006970
C         2.52628617345421    1.37835330028978    6.66159926654424
C         3.24469547735241    1.42241902119630    7.82495154361277
C         2.64935446503242    1.03142436870426    9.04066685313122
C         7.13566526032252    2.71852681318706    9.34579252948022
C         8.43856481792490    2.83837754647433    8.57901745988607
H         1.85096916330917    3.83907653481987    8.03371932800582
H         0.37793217004290    5.09650961293666    6.49582092937218
H         0.08253807429938    7.53073821820812    6.79523761691676
H         1.26618036466338    8.69347355530797    8.61855014798927
H         2.72334512648672    7.43990501886465   10.14488218584348
H         2.65479246475308    5.90403059649190   11.77440045336430
H         3.93950583486724    4.34833851415433   14.58560660795688
H         3.39228149349621    5.87786630990555   13.88929407520107
H         5.11408392146905    5.51627554874402   13.95182812262383
H         6.61742093096737    2.27564514780227   15.46680992252128
H         8.48929980209192    1.49549167229997   16.84843527043643
H        10.07069252748808   -0.66682450951886   13.51777402152213
H         8.19857264323648    0.11855776171468   12.13735731993474
H        11.01766373456987   -1.80364667088618   15.35910925290757
H        12.07037124860194   -0.99442509273970   16.54568976796011
H        11.98249254052405   -0.37840571291421   14.87729348584513
H         3.42119203265506    0.75716656667808   12.18952418845524
H         1.11144391129182   -0.12272139772499   12.34134431039416
H        -0.28058116811560   -0.21288542100644   10.27091356808403
H        -0.42966056734278    0.18473710825681    7.81911236784521
H         0.64324764359538    0.92062976135761    5.72307515699198
H         2.98409444037170    1.68578314504282    5.73334918307993
H         4.26827023202128    1.75511175836369    7.84868564032385
H         8.31500050328625    3.60175899328682    7.81365900743004
H         8.67070683953782    1.89347503664957    8.09710027812343
H         9.23833965122742    3.13802818709362    9.24968569800720
H         5.94242781310557    3.44901944520420   13.79760826326500

