45
CSD_code = IWOPUF | q = 0 | S = 0 | Stoichiometry = C16H19N5O4Zn | MND = 5
Zn        1.39827469567553   11.05955993677198    3.33355669569884
N         2.06751173250443   12.15112716616228    5.12822931737646
N         1.09880188584251   12.98507683702970    2.90869678966906
N         0.59100676129355   13.24203627364653    1.70769486591053
N         3.23530922311482   10.24191770628005    2.90826918741839
N         4.98932299472548    8.94407170811954    2.95677433807147
O         0.79309510270558   10.97555945330023    1.37559790899095
O         2.55093695092232   11.61271346104484    6.28929838633750
O         0.17685932041935    9.83653585854510    4.14387699380694
O         1.70817868646548    9.20820452252476    5.60907425230217
C         2.37668161045736   14.39454184856128    6.07811589387485
C         1.97519891962396   13.42536342324147    5.01232030203522
C         1.44483766466724   13.90500044803712    3.74707896889001
C         1.31635796897147   15.36803779961526    3.46240344041343
C         0.42791170674334   12.11809380364616    1.00003542479144
C        -0.19794218041079   12.29661995834175   -0.32729891711375
C        -0.57219383282707   13.55726079388699   -0.78588710967025
C        -1.16117380014940   13.69410084674474   -2.02826121999969
C        -1.38194971045735   12.57891562305874   -2.82205028173789
C        -1.01217418551502   11.32211547556505   -2.37026264200296
C        -0.42249101778730   11.17986858453771   -1.12877665161988
C         3.87425654536026    9.32815380722692    3.59783416598479
C         5.06065018169931    9.65419905947809    1.79231205545123
C         3.96142406628457   10.45764995908575    1.77733041682211
C        -0.36929311837362    8.02919461142539    5.57118742949537
C         0.58892209688979    9.10447827684767    5.08618447333218
H         2.66066375289984   13.84936744591306    6.97448353415598
H         1.55335872037831   15.06743028291586    6.30803175424074
H         3.22256958150293   14.99249236223889    5.74263344613515
H         0.95391295682970   15.48803577778893    2.44521772144584
H         2.27618035288296   15.87045089160799    3.56920718611413
H         0.61010248299113   15.83206884281546    4.14938594333590
H        -0.39452468596727   14.41186744771781   -0.15322273235756
H        -1.45206225778652   14.67256777018616   -2.38268971587567
H        -1.84372424444724   12.68990969331429   -3.79269820644182
H        -1.18676012916324   10.45343258624509   -2.98868332888315
H        -0.13007991951089   10.21026394776980   -0.75475427149934
H         3.53939371046695    8.94373985378853    4.54199550879460
H         5.86084608750755    9.53355812482817    1.09226242155509
H         3.64035835537358   11.16078241583384    1.03657639759096
H        -0.25849489487389    7.15595704857492    4.93130051068220
H        -1.39158774855746    8.38639793659030    5.49428756452250
H        -0.13237931721292    7.75131938224220    6.59422833638000
H         2.34893081837939   10.64186886046742    6.17263700478600
H         5.65107610945363    8.25349208643924    3.27306644078800

