82
CSD_code = IWOTIY | q = 0 | S = 0 | Stoichiometry = C47H27MnN4O3 | MND = 6
N        11.89622896552287    1.48599813634265   16.91278523698088
C        11.28175348140974    0.34165367800393   16.85740512863962
C        11.82929474147462   -0.56065456955232   15.86839415636429
C        12.92566198723742    0.11446559246080   15.34537844658328
H        13.60927104761561   -0.21126049224646   14.58713400512033
C        12.99407771858893    1.35925195893344   16.02114855181499
C        14.00965258240007    2.31799383133283   16.03286886284506
C        14.00736373182702    3.34680604918141   17.00491455775482
C        15.15139004936484    4.02210464813921   17.54103186796192
H        16.13431854016249    4.01191362502885   17.11057691733886
C        14.75922414623041    4.59287124833043   18.71646707107361
H        15.36127297189503    5.13709278142588   19.41829969736831
C        13.37453495192898    4.26911613960855   18.88758355947224
C        12.61100850092214    4.31835034421087   20.07685605520651
C        11.48086993861359    3.51763272503453   20.26004108248032
C        10.77522433027786    3.34588676944950   21.49563763380633
H        10.97406309686353    3.87972044740723   22.40373815383786
C         9.82754508042268    2.40236932236412   21.27964940418705
H         9.13903625340865    1.99972193309932   21.99656051881539
C         9.93932344519215    1.98270159919850   19.90282544231741
C         9.09246028513853    0.94577842167129   19.40385581072470
C         9.20004995653617    0.01664976115652   18.37954659644021
C         8.27364561509219   -1.06324856863491   18.19185696069638
H         7.34499810149655   -1.15842125082273   18.71906280704907
C         8.75227685825933   -1.94614731856658   17.26041738830757
H         8.26414655758619   -2.84079039364901   16.92608242879094
C         9.98215095687845   -1.44955052700440   16.79004515259397
C        10.98983779562217   -1.70594312492768   15.84155204246845
N        12.94265703281337    3.58283300332983   17.81085200455808
N        10.91881497649035    2.68822996605165   19.30454185898100
N        10.20021739436669   -0.23327471875314   17.44623547514094
C        15.18725673109614    2.19115426079067   15.16549621518495
C        15.93584569102663    1.01851820475039   15.10287612057247
H        15.66626493090193    0.18067765305932   15.72892225058510
C        17.04125079836188    0.94002511249829   14.27583918669666
H        17.61902744475896    0.02799120032277   14.23952854094074
C        17.41109504464464    2.02620033240361   13.50000254888925
H        18.27262785306266    1.96040959639053   12.85231908331638
C        16.67770865209348    3.19980570489412   13.56427845242438
H        16.96541518094633    4.05115557436461   12.96527226903791
C        15.57826425285121    3.28670944459428   14.39710039986130
H        14.99951834039583    4.19756333892302   14.44482884916838
C        13.13890590812822    5.13561971640045   21.18001422267836
C        13.33620660551545    6.49927232805989   20.97261401727860
H        13.07540764972792    6.93014695390879   20.01689146061839
C        13.83680829556921    7.29543158633126   21.98546699194371
H        13.97508616270835    8.35332441484841   21.81759085680300
C        14.16362701209124    6.73864366306726   23.21106916667962
H        14.55804333128968    7.36047075185811   24.00090663138085
C        13.99072496042974    5.38015335086415   23.41794603085806
H        14.25747328800012    4.93964709326503   24.36759720381888
C        13.48098054436881    4.58150734019386   22.41066944975412
H        13.37040717244193    3.51779727183177   22.56444808754576
C         7.86903181301166    0.78372116695059   20.24419453656819
C         7.70203134547441   -0.30834161268123   21.08964958111048
H         8.47429022556087   -1.06292001846693   21.14105636506921
C         6.56421249626996   -0.42117566488589   21.86807027365455
H         6.44583260823196   -1.27038800447446   22.52530622968317
C         5.58029149403176    0.55197110130815   21.80643332761575
H         4.69115544706312    0.46076847636578   22.41251479865327
C         5.74169916125517    1.64260683972627   20.96842775763397
H         4.97735718362846    2.40379430035785   20.91755331846429
C         6.88285047372864    1.76258991793545   20.19553253921503
H         7.01395375164902    2.61254084331008   19.54163284314193
C        11.13218963619470   -2.88128726392958   15.01273753334766
C        10.58191877842344   -4.10848315793603   15.39268440584816
H        10.06338628422330   -4.18812857657675   16.33565009251394
C        10.72612626414817   -5.22171868302842   14.58909614231216
H        10.29800583724169   -6.16464244513172   14.89740200605065
C        11.42189021550627   -5.13649893684616   13.39355998400544
H        11.53212129446602   -6.00879744660992   12.76667267655329
C        11.97841587674895   -3.92688083849678   13.00901443321631
H        12.52152709458769   -3.85506187357141   12.07784089701274
C        11.83895105202784   -2.81067753812932   13.80888322398760
H        12.25592402911757   -1.86560377359218   13.49777091366414
Mn       11.06081080772333    3.23687154895395   17.35420479953434
C        10.48959397609407    4.85951569212814   17.81952419576809
O        10.10736021110892    5.90119792001733   18.12624302572988
C         9.39096894445809    2.74978220700098   16.95166656781110
O         8.30973136121437    2.52439164227364   16.62105032225504
C        11.27438327479892    3.76112328650255   15.66575295065621
O        11.38297211995979    4.09745498030283   14.57065134716700

