71
CSD_code = IWUCUZ | q = 0 | S = 0 | Stoichiometry = C27H32CoN5O4S2 | MND = 6
Co        6.23592193197897    2.27957448942752    9.03770066407327
S         1.99549274867307    3.10428036119019    9.77145828135444
S         2.53033457343449   -0.01519437293378    8.64457729974199
O         4.67888699402228    4.42144879149181    9.92317029866207
H         6.05311431708944    4.90429448799684    9.80458116273754
O         7.08447062907638    4.99035709285086    9.56736330471265
N         7.43754291775299    3.73631921318645    9.23040814892371
O         5.47824246539703   -0.31437769864427    8.35269857964823
N         7.84753872981041    1.38210787830084    8.55938520863388
O         7.94240802605249    0.08110502403570    8.22700649791942
H         6.93914123440944   -0.26535805749687    8.27723646039268
N         5.08648118108916    0.83610189317067    8.78331815792256
N         5.84915220302914    2.82337170083286    7.02293777175915
N         4.68985557330114    3.18188017769867    9.54528840766015
C         3.83739444217941    1.13918899532508    8.94155282022855
C         8.67379985859683    3.48266306920099    8.95655722135033
C         8.91653055531677    2.10558065956314    8.58741163229388
C         3.61027513297648    2.47684596273158    9.42290574924134
C         9.76711298157810    4.49748497003101    9.00802915110995
H         9.36279531810382    5.44581228273887    9.35258206063562
H        10.20683338009046    4.63432497253890    8.02115772306976
H        10.55303517986039    4.17292219410239    9.68752253495820
C         4.92351103978604    4.37077100436582    5.46037532231773
H         4.54311529648166    5.36287285913849    5.27636255289988
C         5.89571031412448    1.91112207038762    6.05315823770107
H         6.27621370343256    0.93298105580808    6.31343482081471
C         2.34463689241018    3.96510374948513   11.29313612333639
C         5.46356841998321    2.16279993918891    4.76216671980684
H         5.51379304970850    1.38322213158000    4.01898595382095
C         6.44826147746150    1.69826500690218   10.94314679216426
H         5.52867981722164    1.18900713396464   11.24580391772640
H         7.25002256911283    0.95478015466278   10.97254533657895
C         6.75947907959176    2.21399192294069   13.37891328492290
H         5.78506706196452    1.77384520866204   13.60082517099238
H         7.50326813418222    1.41582434749260   13.43927323786838
C         5.37662909688565    4.03232333376765    6.72404766970331
H         5.34813785652933    4.76248141951281    7.52102950796985
C         4.96126530219832    3.41719683039494    4.45624889613341
H         4.60686371230270    3.64395781453162    3.46190765903881
C         1.49912518912916    0.96567877605920    7.58518475923761
C         3.06230602203744    3.33620283172304   12.29856047362709
H         3.44135060008795    2.33612171590536   12.14818649225925
C        10.28318365898677    1.59375609933768    8.27532517121014
H        10.22133515462104    0.54451556732154    7.99864560059486
H        10.93003613552185    1.69472860995904    9.14534948447588
H        10.72528170456527    2.15805083399836    7.45612483216383
C         6.74444740499429    2.79033761829145   11.95756764814469
H         7.71746513067402    3.24680066945589   11.76528699256963
H         5.98631618044372    3.57490157490296   11.91712073816536
C         2.79808883314914    5.28388975052580   13.67509043305856
H         2.98250178688855    5.80238497119845   14.60445243918269
C         1.83457399131601    5.23989067074140   11.47790053254779
H         1.27172162961218    5.70971355001350   10.68596604857798
C         0.12477034831919    0.77558774812659    7.63321282644101
H        -0.28766691833709    0.06112681781414    8.32850519863176
C         2.06418048679926    5.89649547844446   12.67304778498219
H         1.67377558642801    6.89297289178120   12.81857893451341
C         2.04739428690538    1.87221329305046    6.68855276694606
H         3.11835596729462    2.00075554967568    6.63652483449795
C         3.29425876792854    4.00487881052679   13.48585068434048
H         3.85886873605101    3.52009971477175   14.26828433672541
C         7.08056078698238    3.28910959546227   14.40953995470577
H         7.05200526551875    2.87641481351015   15.41589265129355
H         6.36102602319074    4.10258495645885   14.34663711622872
H         8.07267380589975    3.70025322289666   14.23566127486793
C        -0.69671172438734    1.50828247058090    6.79786620021874
H        -1.76597363536334    1.36358144546222    6.83959761417637
C        -0.15501752721386    2.43193011234153    5.91842344915878
H        -0.80008195654407    3.01013086346064    5.27403381422013
C         1.21711145890169    2.60936650315791    5.86590173023164
H         1.64865362231432    3.32196240293936    5.17761684112143

