72
CSD_code = IWUDAG | q = 0 | S = 0 | Stoichiometry = C30H30CoN5O4S2 | MND = 6
Co        2.42668778923713    3.12481579319643    1.42128537622383
S         2.46707853634834    4.14865920287820   -2.84752921774234
S         5.57972391833341    4.09856723373442   -1.52775760619662
O        -0.35471757833459    2.93471103803709    1.50452359616191
O         4.30966988309775    2.48594311518801    3.52709444777333
H         4.85231762903087    2.85487330394723    2.72925008620756
O         5.24647904913577    3.31604696234274    1.32510248845096
O         0.56085897927965    3.70886246528581   -0.71166680651798
H         0.00901129876521    3.45364750627437    0.14023825670914
N         3.01538554732851    2.58950423904954    3.12764194325660
N         0.74234870038327    2.81101681268150    2.17146574668385
N         2.54357219898716    1.13620242943368    0.72254551343880
N         4.14347151868246    3.44169642787934    0.67471729574941
C         0.75535303189642    2.41412287198492    3.41075296307540
N         1.84285044104844    3.64367706236953   -0.29331908921999
C         5.17001274929688    2.56611986603044   -5.37308810690683
H         5.67428306002965    2.86962434835640   -6.27812822695849
C         4.11782533998702    3.75478874864940   -0.58616530311979
C         4.28426927665312    3.43305353161207   -4.76089761482795
H         4.09109286963385    4.41088603910460   -5.17352265156263
C         1.59055258482201    5.38245033385277    4.33558845946486
H         0.55880858706310    5.25135467526077    4.04166645957817
C         2.79332558240163    3.81675415232391   -1.14793020242366
C         7.78077730635929    4.81196334069579   -0.05751526007054
H         8.26498758048953    3.98642482531483   -0.55615312501234
C         7.82144723803832    6.63250761624953    1.50591443812639
H         8.35383355634259    7.22894780763898    2.23178628021794
C         2.07679609741409    2.28793935074844    3.96199248152484
C         3.64346874901442    3.04398468699261   -3.59401296005282
C         1.61693137858884   -0.58782809684759   -0.64198851183695
H         0.75884554589083   -0.96947362710386   -1.17170418821316
C         6.49489307901960    6.91122021927212    1.22170797396809
H         5.99024361981296    7.72590249282209    1.72023986546287
C         3.86718552292455    1.78491511440866   -3.05450361204126
H         3.34519061240719    1.47684515063638   -2.16018791319911
C         3.70002977314845    0.47585807564947    0.72981082646506
H         4.51588972418254    0.91475924619202    1.28729484618386
C         2.82777762689107   -1.26129229072006   -0.65429687748094
H         2.94168389489081   -2.18517674721811   -1.20120819315402
C         6.45000869071060    5.08835265718220   -0.32464215362254
C         8.46413624422785    5.59016630689365    0.85869576280810
H         9.49975089379912    5.37365046195276    1.07551526470552
C         4.76536059344958    0.93114265594623   -3.66631702489581
H         4.94840873864373   -0.04320482132694   -3.23724711350028
C         5.80830437274534    6.14961209736197    0.29437012719349
H         4.77706484695214    6.37112295933729    0.05884049651546
C         3.91511370500570    5.52248411700718    3.76004585632315
H         4.70282765231796    5.48375031979790    3.02134135118167
C         2.25606285744533    5.07066859642612    1.95299935872864
H         2.92887257489106    5.62368492351964    1.29608768054674
H         1.22606901548066    5.36215544894387    1.73856171571717
C         4.22741939782995    5.74762778146823    5.08563638792275
H         5.25794799799532    5.89049314218791    5.37647056474961
C         3.88630801696717   -0.71954150454432    0.05667179333785
H         4.84757580653176   -1.20711641215486    0.08874300838029
C         5.41877827369683    1.31884498175660   -4.82397648130967
H         6.11885385402669    0.64829900000174   -5.29902878232613
C         2.58968666035126    5.32770720157037    3.36008911935197
C         1.51932771970318    0.60190090047076    0.05905734440522
H         0.58102335469496    1.13945447721883    0.08440461450231
C        -0.48614469733833    2.11295250532128    4.18708084063010
H        -1.34871866364137    2.38059513935912    3.58046861648788
H        -0.50298846352829    2.68288491692340    5.11401382721112
H        -0.54379363113058    1.05308167264031    4.43321045226729
C         1.90607214010856    5.61057603842132    5.66073059387447
H         1.11941694202616    5.65365512863427    6.40166871160498
C         2.32093353920273    1.85815411239116    5.36810881321986
H         3.38252363756612    1.68141839162216    5.51720335460018
H         1.75932889607554    0.95542319810755    5.59806189181901
H         1.99920407752791    2.64750664539688    6.04639317954272
C         3.22614139570236    5.78890442740519    6.04284236917306
H         3.47198126144422    5.96341720854695    7.08025458065878

