68
CSD_code = IWUDUA | q = 0 | S = 0 | Stoichiometry = C35H27IrN4O | MND = 6
Ir        5.53917425791127    0.19364023365932   16.70325121364305
O         5.25844525343926    3.98009632722322   18.49931584937667
N         4.58536520948137   -0.87220238717514   18.11060251553560
N         6.41210688586312    1.27150890599087   15.24839458345762
N         6.84984634154675    0.81957023206660   18.32215705850100
N         4.73683264138332    2.11749107929007   17.25007508866854
C         6.38505341788731   -1.61645037241451   16.38520227067089
C         7.35800764941234   -1.98094058472479   15.45788296355206
H         7.69910802534835   -1.25856945533974   14.72834443772505
C         7.90168022748828   -3.25421544088147   15.43954712324730
H         8.65534176561448   -3.50810895083484   14.70725136542866
C         7.48477098732921   -4.20933577178928   16.35551522860355
H         7.91267530350271   -5.20104301809385   16.33828170877566
C         6.51955542642438   -3.88817005294377   17.28702457134070
H         6.19939724118494   -4.63598069605085   17.99798292009478
C         5.97027796216483   -2.60577122995802   17.30716631316914
C         4.95387236539192   -2.16958418962467   18.25271115209340
C         4.37265157225863   -2.96671101129307   19.23899071404079
H         4.67250007838915   -3.99702980751841   19.34051304787080
C         3.41460199344460   -2.43662810649709   20.07982776050223
H         2.95690077357842   -3.04552324662624   20.84475863768881
C         3.05182967041527   -1.10521142917767   19.92178880362320
H         2.30951551590418   -0.64833322042664   20.55603239951310
C         3.66265676416397   -0.36666091994678   18.92747033195901
H         3.40917013592814    0.67381604897364   18.77729350793186
C         4.24829182990002   -0.17773766176034   15.20031863099058
C         3.13827665925381   -1.01627210178493   15.17870899748024
H         2.94174968653741   -1.67561518405598   16.01409374790971
C         2.26492796259291   -1.02729685429034   14.10451065625066
H         1.40696357306354   -1.68500740802716   14.11587405570103
C         2.47946740071218   -0.19539559829247   13.01600276400145
H         1.78854105986837   -0.19983264947952   12.18576210327079
C         3.57991621892719    0.63506495764297   12.99590454508278
H         3.74475661125945    1.27700171467803   12.14343959290108
C         4.46525980434667    0.64434405615105   14.07292766288967
C         5.65746319119210    1.47245803123692   14.14068891802228
C         6.04236374976474    2.40627474606406   13.17824622049290
H         5.41870606610359    2.56969887028400   12.31514388674669
C         7.20448995091500    3.13013910689759   13.34356725122109
H         7.50580687974645    3.86489490698055   12.61247104488245
C         7.98087494652140    2.89355681761896   14.47117376614298
H         8.90174900539219    3.42846737666074   14.63973937557762
C         7.54296992026657    1.96098111673561   15.38940207793255
H         8.12711695122752    1.75903320361074   16.27767219642061
C         7.82174484984108    0.12854857868151   18.90892199804476
H         8.08376341286877   -0.81302492011067   18.44373229830880
C         8.47801619798824    0.57029802953888   20.04284770277376
H         9.26128473808909   -0.02771139275463   20.48165746403058
C         8.11000486066332    1.79156469514804   20.59361238714465
H         8.60114329844405    2.16721478439808   21.47920411842360
C         7.10681418614330    2.51388439386646   19.97909028405485
H         6.77344193216588    3.47579133450323   20.33709384258202
C         6.49159870798245    1.99469546536306   18.84383856775550
C         5.42282694435206    2.80947517372662   18.15374265813168
C         3.84299291211493    2.77869187753516   16.40664938951232
C         4.21082409246772    3.93556880301874   15.71849727423660
H         5.17693739121024    4.37981827303893   15.91009125105536
C         3.35728831679493    4.50102016879542   14.79454438798653
H         3.66450454503840    5.39230255009781   14.26381432839976
C         2.11321374998668    3.94227840486663   14.52762681569368
C         1.74113401451852    2.80344890220521   15.22895534529929
H         0.77508956474148    2.35379413550884   15.04424294650170
C         2.58641146975703    2.22938168596088   16.15590528307049
H         2.28309435030807    1.33585705189274   16.68134463649070
C         1.21088134805299    4.55226415933898   13.49601112700690
H         1.60884131744715    4.37982129124002   12.49515588126604
H         1.13147352712246    5.62860906105153   13.64137884428324
H         0.21524533885191    4.11809711032695   13.54641210701187

