27
CSD_code = IWUGIR | q = 0 | S = 0 | Stoichiometry = C13H10BrCoS2 | MND = 7
Br        8.55459199721920    1.68122525297097    9.68546036920141
Co        3.31368590333163    2.21035266821496    2.26274236856296
S         4.31697052960692    2.73890950509245    4.06259712016647
S         4.15370424998856    0.25443612213235    2.35410977331301
C         5.21952930822134    1.34258948327867    4.54593573300665
C         5.12011226615375    0.23818085057237    3.75504849432199
C         6.01983465692908    1.42163973172734    5.76198014107284
C         5.69384103949441    2.33961199379389    6.76205308692016
C         6.43722929889806    2.42137101187493    7.92165840562155
C         7.52444562222047    1.57967282782696    8.08795211033620
C         7.87724877386838    0.66654738747600    7.10779927201822
C         7.12707883509480    0.59092352181720    5.95162179666387
C         3.21163271785246    3.59668001854120    0.71652939175117
C         2.42023408582220    4.03725366439634    1.80501910529856
C         1.42697458095930    3.06015840430610    2.05070298745750
C         1.59529993106701    2.01702916256838    1.10052638918181
C         2.69434203962707    2.34894758350075    0.27811115352651
H         5.60775206942333   -0.69852682368787    3.97466823724399
H         4.84297058196230    2.98901471178411    6.62470714199756
H         6.17540059300874    3.13062004954389    8.69164703326271
H         8.73345106302199    0.02437487256499    7.24685212535788
H         7.41744816969343   -0.10638351786217    5.18157357915245
H         3.98823066861587    4.16502420441360    0.22956417803553
H         2.50571058512039    4.98919341316453    2.30338151000905
H         0.61402956738096    3.14942630336393    2.75372558810213
H         0.93797907264389    1.17340723669442    0.96457258159871
H         3.02097179277622    1.79892035992967   -0.58953967318256

