47
CSD_code = IWUGOX | q = 0 | S = 0 | Stoichiometry = C19H21BBrCoO2S2 | MND = 7
Br        5.94077541583875    4.48147813764465   16.29632305182846
Co        2.50981489951253    2.37379958077910    8.14977587248485
S         3.68170753013244    3.30915375748160    9.66145291668474
S         1.63647776068307    1.10382305522821    9.61177859034668
O         2.92019992303323    0.18688601754374   13.24269069973261
O         0.72815702792260    0.19607984706836   12.66244008961627
C         3.25091349238289    2.53685025101651   11.14277066949236
C         2.33770596947096    1.51851685052240   11.12766610065978
C         3.88768653678580    3.02542730706600   12.36306992046899
C         5.24221145205136    3.35226460615520   12.37310703270637
C         5.85505402472644    3.78556583773606   13.53228689781588
C         5.10303335468446    3.90167813075323   14.68843342146905
C         3.74878627151969    3.61138052015710   14.69775475327756
C         3.14556933669346    3.17914086273481   13.53394154369939
C         2.30411477864239   -0.72663379346976   14.15605284214713
C         0.76460411184928   -0.49555463069745   13.91459452613227
C         2.78956651540604   -0.41468245950946   15.56991057939839
C         2.77375821989860   -2.13132482131335   13.76193943319245
C         0.12146785185389    0.43247592434477   14.95175450212821
C        -0.06962341519518   -1.76953586307977   13.80337453591519
C         1.73963269678997    3.58420500892068    6.64162058967991
C         1.16765674684527    2.28622595610157    6.55687197649185
C         2.21318100109195    1.36010875860103    6.35185761471483
C         3.43700476010032    2.08112202210665    6.31035784669174
C         3.13913109067082    3.45467202886833    6.47710325169028
B         1.97872263593724    0.62829750279396   12.36383083690013
H         5.81667384116027    3.25252071396866   11.46484641253909
H         6.90692814793341    4.02720916395220   13.54040744935726
H         3.17574974029939    3.73072420154402   15.60520596839182
H         2.08644326133614    2.97139863111316   13.51956781868422
H         3.85790262527246   -0.60804004797303   15.62361269387960
H         2.28022011309282   -1.04681349908812   16.29171918052074
H         2.62730769105237    0.62854902163219   15.82064324658107
H         2.48338980800154   -2.35478228522927   12.73864723973522
H         2.36781661516016   -2.88254181290068   14.43231176277789
H         3.85957679874276   -2.15806454235008   13.81522301578630
H         0.67571180871475    1.36440446940358   15.02728410536191
H         0.07549222565128   -0.04368358931567   15.92621725912600
H        -0.88858095815374    0.66751468491867   14.62414957473850
H        -1.10755686832565   -1.49416964445210   13.63444752654128
H        -0.00255914408324   -2.34454104899362   14.72262060536897
H         0.25488505094609   -2.38042746453212   12.96747668120821
H         1.19384493098895    4.51296703583331    6.69328199987840
H         0.11402809676687    2.05931059430868    6.54911251155743
H         2.09344615429096    0.30633569977790    6.15960940751068
H         4.40411400209760    1.67078433296820    6.06634074437654
H         3.84455606974940    4.26662498988702    6.40701470075855

