49
CSD_code = IWUGAJ | q = 0 | S = 0 | Stoichiometry = C27H19CoS2 | MND = 7
Co       -2.77423390223159    9.35975978008099    2.85960571125363
S        -2.29134806021331    7.53274036150831    3.83676479680035
S        -0.70493041106390    9.74108941328536    2.52778171267124
C        -0.56520380277816    7.40634373129581    3.81762848549491
C         0.11877342538918    8.42194042529398    3.22039549603930
C         0.05349491941533    6.24555858925265    4.44525039569895
C        -0.62681880599218    5.53149427711060    5.43285729536443
C        -0.04650022627945    4.43893143444097    6.04183232103260
C         1.23509869493460    4.02641360270682    5.68662347704578
C         1.91327306075608    4.73085959172910    4.69493146386952
C         1.33279918678267    5.82043812017781    4.07944363944538
C         1.86387608813072    2.86610577338992    6.34905293140931
C         1.36067995146869    1.57607856891594    6.12183401756405
C         0.27358423343503    1.32989667101499    5.24278090750797
C        -0.19450206507360    0.06769530824240    5.04011935088229
C         0.39584714924431   -1.03161940107675    5.69734552410182
C         1.45065228837269   -0.84068898301510    6.53479191884569
C         1.97079792730952    0.45774433822472    6.77135213980250
C         3.05954951030724    0.66449581569404    7.61222275108660
C         3.56822162950111    1.93885788464093    7.84120911268163
C         4.67622424122430    2.15346108177706    8.70071252550255
C         5.15312974570581    3.40648971180851    8.93062234207792
C         4.54118257988509    4.52011762331158    8.31890451747838
C         3.47776757274229    4.35571277595693    7.48500868260393
C         2.95937929632935    3.06453638607144    7.20341525636548
C        -4.81649796528648    9.46200882106295    3.26125710262800
C        -4.60999545635167    9.22597559415948    1.88299115840707
C        -3.86195864385083   10.31515252325336    1.36021081170198
C        -3.61002767923517   11.21862366679901    2.41688336746154
C        -4.19191965463473   10.68964594951402    3.59714882378057
H         1.19533565838594    8.46918960048429    3.17412994743465
H        -1.61622836811972    5.85065524455547    5.72384825492652
H        -0.58135686963044    3.90099975742834    6.81118220599587
H         2.90172670535776    4.40835784531416    4.40047617475771
H         1.86761227431790    6.33480216701241    3.29575247212909
H        -0.17696055645732    2.16602237768254    4.72869938951981
H        -1.02295204829810   -0.10366381765789    4.36841845020580
H         0.00549988670081   -2.02351674166218    5.52227457246164
H         1.91763358226406   -1.67648617021245    7.03640636669629
H         3.52039483425295   -0.18405438071631    8.09895925800760
H         5.13042232769513    1.29330016565652    9.17193094319137
H         5.99700244551174    3.56187331909062    9.58681080701997
H         4.92413005651824    5.50933580935380    8.52330415696305
H         3.00740886350916    5.21400505346434    7.02824802311179
H        -5.41917026023784    8.85881820917741    3.92081405183605
H        -5.04264074407397    8.42224282717869    1.30882553314019
H        -3.62633023616618   10.47935138793531    0.32091464497807
H        -3.13772654868492   12.18298664624379    2.32236438906615
H        -4.25719583079264   11.19172126304853    4.54956232193868

