58
CSD_code = IWUJER | q = 0 | S = 0 | Stoichiometry = C24H23BrCl4FIrN4 | MND = 8
Ir        1.05279357403382    5.24341592662907    5.98429478458992
Br        0.78881819373108    5.01314511698638    8.47910507103739
C        -0.71299877699227    4.31678551382755    5.70222455619549
C        -2.84507806750677    4.03644327751092    5.65769507921769
C        -2.30675038050140    2.86499309729620    5.19995283681875
C         0.05432047557530    2.14347719813731    4.74333827806376
H         0.34101068493067    2.41442268277085    3.71402472161667
H        -0.34886089936831    1.12528739639503    4.75020503224273
C         1.81576471881039    3.34564402425301    6.01747325263116
C         2.97283030367984    1.57166489976856    6.76149732904043
C         1.92078096143785    1.09679973000791    6.03823669287927
C         3.85652349029015    3.79412757853959    7.38296233875382
H         3.95493889255914    3.48692439028114    8.42936622047968
H         3.45659384382807    4.81191565888729    7.38857906104018
C         5.20600282463371    3.77587789112149    6.71408835819231
C         6.27080084486266    4.41592396869763    7.34007041365794
C         7.53805102331074    4.46046305779882    6.79373626365874
H         8.32658112198140    4.96997717552925    7.32400924513292
C         7.76078335869854    3.84442731146053    5.57418808327341
H         8.74517898284569    3.86690593994856    5.13396457220392
C         6.71959794644538    3.20419684385828    4.92567900350711
H         6.89038994889051    2.72506465855464    3.97401009737181
C         5.45488785478111    3.17246290313799    5.48962755137590
H         4.65365437933146    2.67110593469493    4.96760305087669
C         0.87189243071583    7.46723761443264    6.02371061577807
C         0.08775506689013    8.30921693061005    6.97513158037387
H         0.19106594967525    9.36391818102058    6.71110685571663
H         0.43759045522254    8.17496936156825    7.99611521625151
H        -0.96593057462267    8.04324017616846    6.93395034521775
C         2.29922951021878    7.20022054282839    6.12851070943248
C         3.15791961863882    7.70706876864960    7.24173006950846
H         3.19719492116684    8.79676421875545    7.20741993486991
H         4.17470458428408    7.32620532506643    7.17060087403780
H         2.74980558908294    7.42037817848107    8.21090482387560
C         2.69993093535460    6.54164758189443    4.96157557228855
C         4.09494543032635    6.23068810129498    4.52057165877112
H         4.40771301446604    6.96043075046505    3.77131024679530
H         4.16406949020266    5.24190617908217    4.07027830288637
H         4.79740132814328    6.27632455587036    5.34924736515142
C         1.52229353496746    6.34354272689060    4.13232911814210
C         1.56789235015999    5.88267366367652    2.70917537917440
H         1.82995445139496    6.71847735822897    2.05710249952581
H         0.60199393914273    5.49520167060678    2.39234956843876
H         2.31522467891818    5.10333216411937    2.57316146300646
C         0.43095999357375    7.04115867050891    4.75216295886269
C        -0.90820436219248    7.33900141912423    4.16218548818816
H        -1.03413432470574    8.41813710265953    4.07205702974784
H        -1.70136105461617    6.95345117944667    4.80162956953226
H        -1.01199687274481    6.89299860633935    3.17690658062726
N        -1.85405343076330    4.90805253764191    5.96173563078297
N        -0.93982703158459    3.05133112392792    5.22680514035738
N         1.22822493812117    2.19620586138067    5.58194215161139
N         2.89515696615456    2.94360930852524    6.73364233395760
F         6.04916091535735    5.02438990975662    8.52364322596460
Cl       -4.49058035085944    4.41854424401385    5.83616569784468
Cl       -3.01156497308260    1.40834622715862    4.66675333132802
Cl        4.20570897176021    0.73269578610706    7.57459911008160
Cl        1.46884861098640   -0.50411820245756    5.69315765798111

