116
CSD_code = IWUMIY | q = 0 | S = 0 | Stoichiometry = C45H65N3P2Ti | MND = 5
Ti        3.15992735907315    5.62314039725297    4.47193966439684
P         2.23001388467323    8.10565384683993    4.60416256589371
P         4.09230540356725    3.16234797699741    4.10605202621459
N         4.62752912105303    6.68367298926159    3.58558813121645
N         1.60582432492202    4.67849356676531    3.57155872508480
N         3.27582366719514    5.54021867851038    6.16227619413552
C         4.84128383963516    8.01796330229751    3.72156234774076
C         6.06089874474539    8.63729159763036    3.35454602604951
H         6.86160880228163    8.02940182697630    2.95699451293164
C         6.25747052673522    9.98962181066977    3.48590765592707
H         7.20688289082682   10.41667000683583    3.19165192467022
C         5.26398040732209   10.82333457361995    3.99594174062496
C         4.06055319959503   10.24036626199962    4.34966351695589
H         3.28366829616670   10.87472497770067    4.75251622080202
C         3.82677735037084    8.87551185049543    4.21406298073506
C         5.50053828983578   12.29775011358215    4.14526084468510
H         4.63458073631364   12.78777912827321    4.58498493525194
H         5.70005512961018   12.75483323889663    3.17558008967211
H         6.36428879192962   12.48476415425397    4.78324970352205
C         1.13032467676932    8.85469902363250    3.25825634787189
H         0.20837692765474    8.26484125905252    3.28463563311326
C         1.84204093407445    8.59610544032997    1.93232924493528
H         1.16208828551480    8.74042725695409    1.09397190564151
H         2.22108094083369    7.57352781014869    1.90059605002326
H         2.68614485812905    9.27556097920360    1.81729897353519
C         0.74360769813800   10.32540791327209    3.36913537412820
H         1.61983596489938   10.96813425321644    3.37210626375775
H         0.14765101419936   10.52059794664918    4.25723086730769
H         0.14014583705745   10.59187600546641    2.50136745444430
C         1.74271102908739    9.07287226668373    6.13541384637436
H         1.57042688015549   10.11509846873324    5.84989244049009
C         2.88156764160220    9.00675445568369    7.14944029968407
H         2.52762454653658    9.29150387020177    8.13949144732161
H         3.69580815321194    9.67138373188886    6.87015643225978
H         3.27448061770424    7.99304418944252    7.18922377814860
C         0.45396686447171    8.50126567293472    6.71528256104101
H         0.64093119804953    7.50708862811672    7.11318267913579
H        -0.31711540635538    8.42845240483324    5.94959996229257
H         0.08376237923107    9.13410474943205    7.52177745391634
C         5.75272942244921    5.94979041235933    3.15320567427614
C         5.96342637737256    5.71591381226139    1.78691992166886
C         7.11560999125305    5.06281236545167    1.37252430656008
H         7.27221413728199    4.89572812680873    0.31536898118200
C         8.07570132897348    4.64117703033290    2.28026481743696
C         7.87163081777148    4.90368146713686    3.63124556172956
H         8.62903615780315    4.60874285085618    4.34535817116447
C         6.73893255033913    5.56256085940000    4.07959126992702
C         4.97449983721500    6.23725523960714    0.78562841468943
H         5.09396323021305    5.74582629588570   -0.17756402766977
H         5.11627673625295    7.31073815227159    0.64745405987433
H         3.95403091932905    6.08738441158319    1.14259320427750
C         9.31520860892497    3.92764450177207    1.82845514363478
H         9.32838592914549    3.81833183594951    0.74681488994400
H         9.36843288138184    2.93622824610702    2.27831637460454
H        10.20498670492661    4.47791046730135    2.13258140242395
C         6.57104750844094    5.94219125859081    5.51880083803195
H         7.24415513937614    5.37259434387301    6.15554782585664
H         5.52518060885911    5.78221922159951    5.81639186913923
H         6.79052137035807    7.00477780751940    5.64552218707282
C         1.43425916408707    3.34301806254452    3.40014572082817
C         0.19375666698809    2.76849453509562    3.03022242672671
H        -0.66467626599917    3.41111521890262    2.89355621779060
C         0.04662222582373    1.41565538681439    2.85149475941649
H        -0.92070132457341    1.02256452943176    2.56829483723489
C         1.11112628076964    0.53480106204220    3.03807958230495
C         2.32742983075123    1.07526143186111    3.41246151842992
H         3.15830686017860    0.40655224127893    3.58687700668409
C         2.51071074414962    2.44323839207593    3.58304454866638
C         0.92848553437569   -0.94212692774926    2.84591433080891
H         1.84394000951281   -1.48055038001575    3.08129133493597
H         0.65392886217337   -1.16392871544818    1.81418136411128
H         0.13185761919419   -1.31716845430171    3.48835167659396
C         4.41295758779284    2.09031553368893    5.60976947025303
H         4.61652774913517    1.06662829689691    5.27901383121248
C         3.15396479874414    2.09725796688789    6.47640247204630
H         3.39105818861451    1.80370430052864    7.49819465863332
H         2.40966620962760    1.40668866765209    6.08563768391126
H         2.71574765311317    3.09896453943917    6.47841858261446
C         5.62302464399088    2.62792054468177    6.36550304784911
H         5.39577771206057    3.61514779630642    6.76007348098943
H         6.48467807495315    2.71300678013130    5.70418241693077
H         5.88466402986071    1.96909174922896    7.19321863264945
C         5.30268867834481    2.49265526879618    2.81087180250147
H         6.14576281042442    3.18892132106781    2.85305373284534
C         4.63472684864919    2.62988109874394    1.44428402856070
H         5.37293780543946    2.54738731083141    0.64809754315435
H         4.14320881866875    3.59889175168614    1.35725410575491
H         3.88275068893637    1.85519196098419    1.30490669347629
C         5.87840915556893    1.09106028961965    2.98898802880988
H         5.11167532984116    0.32309660130409    2.94020282834951
H         6.42033730736865    0.99578179669794    3.92638751181054
H         6.58209376975093    0.90304491866924    2.17809736345898
C         0.44507382493882    5.45451568132151    3.37622451902753
C        -0.39004537067996    5.73956143001421    4.47172033177257
C        -1.54594665126267    6.47659121846937    4.27375291484356
H        -2.18909168068293    6.68825471529386    5.11779346550495
C        -1.92169045601450    6.91389137297452    3.00826700438986
C        -1.12545787982409    6.56792211187635    1.92612497055391
H        -1.42816198662836    6.85752453849560    0.92878303702757
C         0.04175932740917    5.83467415032113    2.08695284763843
C        -0.05042984863329    5.14939518978174    5.80693661296050
H        -0.18728945667261    4.06579819497931    5.76942652797278
H        -0.69329235323630    5.55067305301139    6.58702583870620
H         1.00896033716027    5.33910513777677    6.03704162667143
C        -3.16257046577431    7.73530059042118    2.82174050912616
H        -3.94511310003684    7.41532948285343    3.50661555752483
H        -3.53226273897727    7.65484374250115    1.80218244575530
H        -2.95048753843779    8.78663679256922    3.02311585930706
C         0.81909671747197    5.38136306112854    0.88478862203254
H         1.85464349542865    5.16608302408486    1.15088925063264
H         0.79529331445611    6.12849825135157    0.09377685706954
H         0.38696121584968    4.45792087461298    0.49462712913256
C         3.38245256083731    5.51483050816448    7.57496472721849
H         2.47561495537718    5.91825404131344    8.06024242119475
H         4.24369561464258    6.10489725487502    7.93920565445873
H         3.51344203043752    4.49147537346169    7.96291832135668

