74
CSD_code = IWUPUM | q = 0 | S = 0 | Stoichiometry = C23H45N3NiO2 | MND = 4
Ni        3.54680470610821    4.34933635629758   12.89622444401758
O         2.77729533250356    3.85778192112718   11.32956329027246
O         3.47886606746880    6.19166576759414   12.76967380693299
N         3.10974880886859    2.76244684399772   12.00989732856437
N         3.97398088193230    7.03943933186239   13.74732875613794
N         4.85117104650770    4.17673405268644   15.52959538251579
C         4.33176144217403    4.18218749580635   14.48279584435678
C         5.48187994086685    4.20319659403568   16.78848291661991
C         4.52133891423674    4.84131928637020   17.79666686238433
C         5.80674331570758    2.75917743425881   17.18768645027757
C         6.76190132552986    5.03552314372887   16.66867055936463
C         5.40904915405916    2.94906882047132   11.22412565861488
C         3.84552233973430    1.51561411004315    9.96455623189038
C         1.03581723430971    1.52291171320433   11.34563461852474
C         1.08477072804106    2.95958797580756   13.35073406512219
C         4.21530843188996    1.99339289072751   11.37560245568759
C         4.62705274856378    0.83503143886559   12.29246524010013
C         3.44829123761388   -0.03304675999684   12.71184165652216
C         2.39913761890719    0.83990817749133   13.38730600088354
C         1.92938050872939    1.99869359053898   12.49939510976064
C         6.22750718205232    6.71382985898576   12.97574934410190
C         4.88217034020791    8.51674358731389   11.92987026134930
C         1.97369645908580    8.52092283564420   13.40677394516933
C         2.01596456655985    6.71439115561935   15.10525565126962
C         5.14676352733873    7.77222861332805   13.24942839244617
C         5.66158443446100    8.72534779488303   14.33599294471435
C         4.56243010676303    9.60739613322153   14.91061036718865
C         3.45451642185631    8.71993886355278   15.45947830659039
C         2.87934227534528    7.77209710215471   14.39904705494792
H         2.62488357800573    6.12524380745630   15.78606065533344
H         1.01901068484266    8.75336590551343   13.87366898739271
H         3.86409619138489    8.12198197482563   16.27776351051190
H         3.78871746380137   -0.80276830144735   13.40809012171837
H         1.21257081518503    7.18834226366339   15.66386364841467
H         7.15280637371912    7.18675197973454   12.65604392259062
H         2.64196598735983    9.32807723328393   15.86221585075630
H         5.37873180548884    0.23274885089407   11.77841425597537
H         0.67103376957291    3.74631054623420   12.72181842768917
H         5.16691273439021    3.73453291208743   10.50996469096085
H         1.69363292170036    3.41975213860889   14.13932784451500
H         2.83147944748324    1.25913734557014   14.30085333600472
H         5.87857492280570    6.04239940610523   12.19325649665342
H         4.17025499947448   10.27540330711735   14.14355892846064
H         6.28020346652783    2.40385771364466   10.86641933646357
H         0.26678620349769    2.41888372853627   13.82264336425118
H         1.58900826562666    6.04655529235888   14.35935139206668
H         6.46057485132627    9.33762632696508   13.91295815788503
H         0.03327768280114    1.32796846048103   11.72072469478763
H         5.08742328297131    1.25450521681003   13.19209789697116
H         3.02272981014807   -0.54579547837188   11.84826439498266
H         4.96824168402705   10.23244426767490   15.71044458325961
H         5.66328626594839    3.41114852415992   12.18643587350375
H         1.80030746606376    7.87544923400473   12.54930889698580
H         4.34086793235838    9.44448370434957   12.08379982045657
H         1.53067229086891    0.24125146753200   13.66905349814213
H         5.82339629865296    8.74876264762771   11.43621382853670
H         4.75416105642559    1.31487110767136    9.40073715051640
H         4.97951280140809    4.85826256500083   18.78209542607042
H         2.41950719204477    9.44871760994152   13.06365329305841
H         1.39786261835514    0.61295390301384   10.87951398140349
H         6.52016831939249    6.04784755710189   16.35349826707354
H         6.08873595274813    8.13214442701635   15.14859715135537
H         3.59320203959463    4.27657654832650   17.85028950313498
H         4.28957694768801    5.86149002749988   17.49997301687503
H         3.25103830246860    0.60846570286547    9.96867694913488
H         6.41659102061566    6.12934976489783   13.87242722471166
H         7.26672632985000    5.07729624578977   17.63027377563090
H         0.97481182277564    2.30862102856413   10.59591801954391
H         3.29307882750442    2.30257519833172    9.45599313812083
H         4.89521676282189    2.16882104148486   17.25082288623074
H         4.29432962557264    7.86893464615003   11.28432074842223
H         7.43602944573597    4.59595361955069   15.93678519138992
H         6.29976860036374    2.74519714714861   18.15598333342764
H         6.46593804120192    2.30183525459960   16.45307158231633

