100
CSD_code = IWUTOL | q = 1 | S = 0 | Stoichiometry = C33H56F5IrN3P2(1+) | MND = 6
Ir        5.91975342458885    4.14442152906927    7.28572218391742
P         4.17633131283345    4.92907531512086    5.65790154590373
P         7.71546859225343    3.02898681396022    8.69731499672672
F         5.82393229569167    2.60276140121450    6.13971187374463
F         3.82143707257360    5.41286470210281    9.60717014778043
F         1.76509173793896    4.30007221631110   10.85699769039682
F         2.63763085893631    0.23452007818891    9.14022571395761
F         4.74137852801618    1.10202434188062    7.79819882180587
N         7.46448981746494    4.82396402841028    5.82525086342956
N         6.28389806519240    6.65858257768487    9.01612549250516
C         4.39850002018230    3.36249664250019    8.51277413480385
C         4.78198448337046    4.85687554841914    3.87561902422660
H         5.81598743579115    5.21697834315449    3.93825374497040
C         4.04759608827516    5.75945547720847    2.88251470609236
H         4.45585696637088    5.56951659803704    1.89060809232028
H         4.18474599794344    6.81631976770893    3.09214149842330
H         2.98460826892590    5.54384281226533    2.84451788972495
C         4.81428229286951    3.42996968351843    3.33027470035484
H         3.82429891482313    3.12247100034866    3.00729222468156
H         5.17213743304605    2.72252866846588    4.06872043451549
H         5.47421491663365    3.38544861990993    2.46530814391320
C         2.55170038384164    4.00503467682318    5.81405222121263
H         2.29785187090535    4.17559749865583    6.86907238844892
C         2.68017592847779    2.49534957242793    5.60058406606486
H         1.92328613996732    1.97597195593326    6.18498413088623
H         3.65374039754391    2.12115285415769    5.89049898040306
H         2.52175326348233    2.23688415942575    4.55806298732465
C         1.40522394927410    4.53700775101847    4.95494288545095
H         1.57860455897631    4.33793960975909    3.90094841757826
H         1.22583877334186    5.59943979552302    5.09097050140309
H         0.49573031424542    4.00981299699133    5.23896910885548
C         3.63361443640177    6.71460843811083    5.79471167175259
H         2.98144473449555    6.89000317266348    4.93469363120384
C         4.82681448528167    7.66168908834986    5.70678177026459
H         4.47590305779029    8.68752474626521    5.60698647753620
H         5.46799258894617    7.43984116590327    4.85653575121059
H         5.41727126528717    7.59339248422721    6.61642110861319
C         2.84985384090459    7.00955926303441    7.06702052930546
H         3.47046546843055    6.84810984471676    7.94073600178468
H         1.95771061384640    6.39669768747588    7.15449397991051
H         2.53579052523951    8.05201099718548    7.06418533967627
C         8.78506863279055    1.90147574546991    7.65499570203217
H         8.99491853935971    2.51308014927266    6.76686001277211
C         7.98307729005584    0.67875087616808    7.21042314491609
H         8.52175131058051    0.15730902498244    6.42156132564251
H         7.00807593607239    0.95625573572362    6.82725219403804
H         7.83534176671652   -0.01922699185275    8.02884070236472
C        10.12964071265693    1.46926278185691    8.23837012479742
H        10.01921674005707    0.94881786574972    9.18342534459736
H        10.81066235567113    2.30528940569151    8.37007994448915
H        10.59612855432859    0.77940858366687    7.53607087192326
C         8.83806566186291    4.29702451327339    9.51881764909013
H         8.12156456481267    5.01193553041953    9.94062621981873
C         9.67375675202484    5.03463911753034    8.47477350058260
H        10.23279122189056    5.83989244954089    8.94917879668600
H         9.04324545842239    5.47042021557884    7.70646511865509
H        10.39261430096775    4.37415293254598    7.99753748179606
C         9.73357871584532    3.82712460795117   10.66385820115359
H         9.15539794155394    3.48896108695194   11.51693404708210
H        10.33639969215010    4.67152764951377   10.99765433778587
H        10.41398131749857    3.03865290937444   10.36393558607237
C         6.97857514723257    2.02573269032392   10.09576081514247
H         6.18198122728291    1.46786762243832    9.59703681825150
C         6.34102620157395    2.96705163599840   11.12079671818796
H         5.57085372262364    2.44031284964302   11.68050553979671
H         5.88331127548739    3.82804731849448   10.63736329983494
H         7.07642173985431    3.32799783520341   11.83451607981721
C         7.85681857983996    0.98780950463114   10.79300048888735
H         8.74438163687458    1.41732429275387   11.24410766585069
H         8.15320931525742    0.19275464232688   10.11611589030719
H         7.26855779946457    0.53209011468871   11.58839033367401
C         7.89839796262592    6.08352023033412    5.74096245961519
H         7.50875611390836    6.78254603961485    6.46616775082039
C         8.79939760652246    6.51102374156698    4.78321153199437
H         9.10809717006346    7.54361860369601    4.76100715861025
C         9.29045333758657    5.59424506342324    3.86534029603250
H         9.99457933395457    5.89488205892041    3.10552665586559
C         8.84615913410057    4.28624406301564    3.95198264811034
H         9.19087400010113    3.53103101932911    3.26449534854326
C         7.93579908567529    3.94790146044116    4.93967443029252
H         7.55476265895371    2.94049963942103    5.00288722753489
C         6.08530896163984    5.71600611381753    8.36283766885583
C         6.41213318627945    7.74696889128524    9.90701492455341
C         5.22419207088706    8.68695864386914    9.69039286540146
H         5.20854152449812    9.06697921840593    8.67167032310218
H         5.30213619590238    9.52914896005271   10.37142875434054
H         4.29097236863521    8.16595831697138    9.88745227770883
C         7.73586697655401    8.45232281166119    9.60221702147623
H         8.57303494509251    7.76740292411324    9.71559545041469
H         7.87142392108847    9.28062482522809   10.29112427565376
H         7.73984119650506    8.84568953624814    8.58779628226810
C         6.39799085364607    7.18782482579578   11.33215111958282
H         5.48313959412716    6.62734406695577   11.50695239132886
H         6.44354727963074    8.00781634652460   12.04254357169747
H         7.25021513508408    6.53424144823666   11.50408539091891
C         3.57936820820775    4.10216478344976    9.37410287302327
C         2.51031667697896    3.53848427441847   10.06285767608077
N         2.18635908662022    2.27184077326487    9.97227461292014
C         2.94500937431284    1.52332381397841    9.20937387018165
C         4.03652080888888    2.00914088650871    8.48802331395792

