97
CSD_code = IWUYII | q = 0 | S = 0 | Stoichiometry = C48H36BMnN10O | MND = 6
Mn        3.01929226061745    3.07491700141159    6.68751941705647
O         1.34018752212120    2.08638367901565    5.48609362457996
H         1.16878256298945    2.52724465805486    4.64476830887115
H         1.51485859917924    1.15613990350562    5.29724832499195
N         1.91738968644158    4.74541149733117    6.85418654874806
N         3.73022982778055    3.74581952655182    4.92764368811936
N         4.08625164929379    1.38310396706569    6.47562165306471
N         2.19810441004416    2.34377137363926    8.35159921663084
N         4.51510726589692    3.95662636436203    7.64829166062738
N         5.65531486583832    5.39368436897518    8.89153953674402
N         6.43575138414750    4.97106615230364    7.89837692978405
N         7.55481797036745    6.04173381106634    6.04106617873907
N         7.58678108146393    5.23637568502266    4.96644409186298
N         6.83126192829397    7.22951348264785    4.34432297076305
C         0.68319056085353    6.44515437497016    7.78284369536014
H         0.07422864323659    6.96519663678670    8.49571347179270
C         1.20281900623013    6.91638922468286    6.62528440525302
H         1.10533051348493    7.89832760537211    6.20662336787429
C         1.95936315040254    5.84678682894625    6.04262992320639
C         2.62333553357091    5.94030981763507    4.81908081212010
C         3.42111738694117    4.92167035665856    4.29819990641264
C         4.05779446735705    4.97639248617032    3.01586534659097
H         3.94384175022177    5.77262832868097    2.30773207821779
C         4.80182633817966    3.85093077098252    2.89916963521145
H         5.41418312596944    3.53988047347014    2.07597795820998
C         4.61545142887376    3.10254360661644    4.10565930055308
C         5.26879784136877    1.90109994137321    4.37988615987954
C         5.01311246420918    1.11574138149736    5.50250599242353
C         5.67550503857587   -0.12399541676009    5.78110579000058
H         6.45537768554738   -0.55041128013653    5.18208315127312
C         5.12669190915983   -0.61664611556664    6.91664855261423
H         5.35868421899241   -1.53403822372571    7.42054421242333
C         4.14632751938216    0.33350080391622    7.35193017707872
C         3.34588091350272    0.17087101880794    8.48128544238127
C         2.41940972173869    1.11676806004692    8.91565279079141
C         1.59960448729662    0.95423746590161   10.08072495647862
H         1.58436929930906    0.08217971379014   10.70426205414335
C         0.88663132432129    2.09581492723981   10.22103804902385
H         0.15882470911242    2.33408055972185   10.97142271565026
C         1.27810818376551    2.96565741251920    9.15011901621969
C         0.78399808436912    4.25826417158017    8.98204162603548
C         1.12426714216177    5.08744687711586    7.91379101556798
C         2.48125930818906    7.18351915538486    4.03350650084342
C         1.22334170757714    7.59819052068953    3.60249584337387
H         0.35572613573975    6.99866377121237    3.84101812485949
C         1.08319765432452    8.75689198213863    2.86113571206356
H         0.10276998639568    9.06481053785132    2.52747127108442
C         2.19608205742716    9.51948529731522    2.54729376018678
H         2.08506774935349   10.42610755849386    1.97101053807039
C         3.44944033503640    9.11392427206094    2.97433877502204
H         4.32259973246035    9.70186068112996    2.73545980092323
C         3.59698247666360    7.95145739442196    3.70986245322909
H         4.58102468669737    7.64892803597018    4.03900878231910
C         6.32378503870790    1.46769099517738    3.43821280773536
C         6.18613852257827    0.30336276804045    2.68989078746890
H         5.28897274636467   -0.29200443658151    2.78949509842929
C         7.18346611737786   -0.08392178086584    1.81299713929108
H         7.06584550633345   -0.98681028313262    1.23136370473992
C         8.32860079361560    0.68370084568688    1.68141397677645
H         9.10720873390330    0.37863436456588    0.99796641176387
C         8.47167171399077    1.84180565739776    2.42790981483719
H         9.36375511453166    2.44217353005590    2.33120690404584
C         7.47541710798896    2.23906792559149    3.30175976499020
H         7.59132401760202    3.14102602483733    3.88715403619412
C         3.50206114500772   -1.07043588395773    9.27276486670872
C         4.67355327575427   -1.30710882239004    9.98441765890285
H         5.46405671122209   -0.57131488926555    9.96105697155147
C         4.81905482556617   -2.46698723287211   10.72381756284910
H         5.73081994097193   -2.63935632488649   11.27638557695857
C         3.80027944967131   -3.40455345077368   10.75672055558457
H         3.91598512212818   -4.31060692430574   11.33254413542138
C         2.63189138755726   -3.17597233142506   10.04955258734693
H         1.83464916910882   -3.90455027814768   10.07128436124352
C         2.48139269960041   -2.01448313202874    9.31348341684106
H         1.57082549428151   -1.83589358793947    8.75926000441737
C        -0.14647837750938    4.78681825044802   10.00269655177351
C         0.27497409258298    4.96210779243592   11.31735060428806
H         1.29227826711897    4.71613553857437   11.58553866516077
C        -0.59529152616436    5.46026199240776   12.26986217521440
H        -0.25590894390076    5.59794530807732   13.28584333882779
C        -1.89694848193108    5.78231666192754   11.92348486392127
H        -2.57616756290039    6.16854353651060   12.66872272937512
C        -2.32439551135597    5.60835044089669   10.61773234959626
H        -3.33918426701256    5.85648692314650   10.34307550371647
C        -1.45431408343432    5.11740967867291    9.66136940398501
H        -1.78701739124554    4.97647900137047    8.64307403014641
C         4.51419948018729    4.77936464383872    8.73257198724731
H         3.67271658623300    4.90981229974704    9.38585098728480
C         5.75938380649425    4.10752789148717    7.16739711447985
H         6.17336185325593    3.61456044366177    6.30869070506313
C         7.09481764507721    7.22506754565344    5.64182067789980
H         6.95890224756557    8.06173627030939    6.29572686175498
C         7.15839817730204    5.98119890857717    3.97215461339989
H         7.07967226022249    5.62988361581711    2.96296440587540
B         7.82132522809737    5.55907940895105    7.47892590425557
H         8.07459088183801    6.47954703343687    8.17655242729924
H         8.62043569318024    4.68229157530049    7.46429063995131

