44
CSD_code = IWUYAC | q = 0 | S = 0 | Stoichiometry = C19H17O5PSiW | MND = 6
W         3.27067459064112    2.64853008210777   12.53435833749315
P         4.10613336114986    2.21286439604443   10.20531440213754
Si        1.46098863147709    1.61587256862226    8.66213342961336
O         2.35418096498637    5.52965050380197   11.68006824763122
O         2.32758431338232    3.38862035740970   15.41381852113645
O         4.19593880639886   -0.09482431899796   13.75641713071124
O         5.82550466945580    4.16222695011460   13.52206553361784
C         2.66937962453646    3.10920002219654   14.35795199321364
C         3.88197065520316    0.88268444247960   13.25438862178871
C         2.66851959429606    4.45990549795945   11.93289653705769
C         4.99109704544230    3.54680495568631   13.04315973249487
C         3.30515537158905    2.11316623406131    8.66952879655129
C         6.18347040512372    2.70479874896279    8.47619205716212
H         7.23463970833841    2.90223958208713    8.30477913388142
C         3.99422531460318    2.31321840355389    7.48349639049627
H         3.43279960284924    2.23318391322684    6.56247631054536
C         5.76667760728408    2.52666500456681    9.78656854166423
C         0.43457111204430    3.04479835834617    9.39445711431124
H         0.88368022819365    3.43217419353106   10.30574303522868
H        -0.57309769376561    2.72018111416694    9.63507419169083
H         0.35435405925147    3.86980218285332    8.69185823529224
C         5.34253539853139    2.61640393984744    7.38108734560693
H         5.76242376984864    2.77137807032481    6.39715988643887
C         6.76391168047976    1.55864205145950   11.83530285270503
H         6.08079008209228    0.72465721826987   11.72688127543165
C         1.35520932940110   -0.00870794247544    9.65839172483661
H         1.63605966030751   -0.86189710534160    9.04691007014812
H         0.34980520028974   -0.18753777942142   10.02608019485506
H         2.02357324501094    0.01261083125713   10.51767058802566
C         8.57450065632545    2.63366885114701   12.97822120087958
H         9.27900050006405    2.66323369454802   13.79566143830543
C         6.74450256468942    2.57607363017893   10.88253435371496
C         7.66385306776633    3.61661783393565   10.98626762007473
H         7.64835952384442    4.41569773781459   10.25890446216267
C         8.56703601385522    3.64606119559643   12.03242603219018
H         9.26583624161061    4.46540850736775   12.11377318119477
C         7.67766700362633    1.58368965300275   12.87249927545617
H         7.68528392815181    0.78691671110941   13.60143692734998
C         0.87816406672042    1.28813086665408    6.87796210894523
H         0.91117333483180    2.18701801786608    6.27084347423283
H        -0.14832036483488    0.93686824215381    6.87871783340852
H         1.48075431310181    0.53022409518056    6.38773209142351
C         1.44466406858113    1.86064189024377   12.30985684169659
O         0.37256874322179    1.47203659651324   12.38583292720103

