155
CSD_code = IXABUF | q = 0 | S = 0 | Stoichiometry = C64H82Cl2N4O2Ti | MND = 6
Ti        5.60357904328556    3.45414928632595    0.95326984742648
Cl        5.51959991567130    2.02142688600419   -0.81704743016829
Cl        3.90430420991067    4.79236166845096    0.19066440785567
O         5.78559949293668    4.60979601280147    2.26164641446964
O         6.84188650462961    2.38686567963780    1.63869721676440
N         6.87339318749612    5.02646318825064   -1.56798144072509
N         7.28054938114702    5.98158706234795    0.33963614288868
N         2.97747274049332    1.59305388212529    1.27933980160392
N         4.60731604907700    1.05247100179504    2.60736795677054
C         6.77303688034194    4.88499487350170   -0.24883917332300
C         7.50244848046323    6.28812921847364   -1.96906862371171
H         6.81022825855638    6.87984413721888   -2.57137904789838
H         8.39190586607031    6.07878301297262   -2.57074537600258
C         7.82813547749854    6.93765012314260   -0.63461094066679
H         8.90772576892339    7.04162126739205   -0.48852011853246
H         7.35047823510011    7.91250271288569   -0.50921263668198
C         6.51549748531560    4.17068630401408   -2.65696503408710
C         7.39998673432693    3.16143467641138   -3.05807377819688
C         7.11784133234300    2.45130442019951   -4.21614209754664
H         7.79374549315673    1.67805541589889   -4.54486443196844
C         5.98728992099765    2.71935528123872   -4.95994757039859
H         5.78185304724509    2.15495219635242   -5.85752189221690
C         5.12111676048277    3.71067832612928   -4.55067189660964
H         4.23784702147219    3.91499652754537   -5.13485534235276
C         5.36797776940190    4.45853378611941   -3.40574967486902
C         8.65602337860716    2.83330552999848   -2.28562205528083
H         8.61666552678970    3.34029020217459   -1.31515896202355
C         9.88880062282300    3.32321720552499   -3.05258555745978
H         9.96653775829102    2.81344165054664   -4.01011694103812
H        10.79343164920842    3.12395841822113   -2.48217370415590
H         9.83492175719577    4.39350942294667   -3.24469942176119
C         8.75365066874916    1.33080419563393   -2.01462196475745
H         7.84882944430704    0.99448081316341   -1.51438178951997
H         9.61026442991908    1.11719991927078   -1.38063912631873
H         8.87037391401133    0.76870026691848   -2.93714967552584
C         4.39233754672227    5.55220051560663   -3.03766882560143
H         4.64930577461157    5.95521304008736   -2.05511301181900
C         4.43050396310687    6.67832072177880   -4.07745812333123
H         5.43949000556543    7.06258544736043   -4.22246732578414
H         3.79076199217203    7.49812908462947   -3.75868768196631
H         4.07263030073214    6.32008602597245   -5.04002155778223
C         2.97120719274936    4.99686242991572   -2.92474438176418
H         2.58817025243708    4.67285788493814   -3.88916263424756
H         2.31085858176540    5.76287017279530   -2.52702526909815
H         2.95698082830526    4.15801526191956   -2.23614414714290
C         7.26604289380392    6.35289958446673    1.69927730750998
C         8.03458181604783    7.43900964064601    2.10608577536120
H         8.65722068931622    7.96783304608074    1.40286240300365
C         8.03585344837159    7.86726640519979    3.42017072064678
C         7.24623577556238    7.19365682659607    4.34028238206374
H         7.25782070634690    7.54974156422056    5.35665388405864
C         6.46979004467342    6.10104982796455    3.99660788889930
C         6.47290125237282    5.65629823037079    2.64887096998086
C         8.85760470305285    9.04842734099723    3.84415549857448
H         9.63980301888587    9.26054698563585    3.11913190260317
H         9.31801036167968    8.86808522017528    4.81330324213502
H         8.22737947171493    9.93381644904071    3.93350982173378
C         5.63777806104586    5.36640218740503    5.04172594591252
C         5.72785864469578    6.00126914731381    6.43722367884876
H         6.76483538687631    6.00201892817649    6.78044508645203
H         5.37091524275507    7.03305898464853    6.40191041355016
C         4.88173504787817    5.21669762255460    7.44136134924790
H         4.96534164376477    5.69451727933295    8.42520307592992
C         5.38414329584781    3.77767089952092    7.53089735900745
H         4.78531105987603    3.21751550281118    8.25350390876436
H         6.42151084646525    3.76386255641594    7.87363297473789
C         5.28580401158331    3.13205138637777    6.15095699676172
H         5.65752582063673    2.10226078615746    6.19725236387045
C         6.13548911535515    3.91810389800780    5.15686796682255
H         6.08808708765564    3.43923200053586    4.17767054197402
H         7.17862622531606    3.91616926335257    5.48340662334233
C         4.16143708527926    5.36460208500397    4.61813134850172
H         4.06782705480414    4.92554974634779    3.62174340342926
H         3.80457743988040    6.39674956937746    4.56478673687190
C         3.32381905445311    4.57099156548172    5.61862513931171
H         2.27669932928841    4.57050360223551    5.29652009463338
C         3.42165337089300    5.21651746783445    6.99855477932891
H         3.04297291164376    6.24066202569162    6.95754609556214
H         2.81279503404513    4.66296977937626    7.71805758334452
C         3.83256471488558    3.13247560835031    5.68333358020685
H         3.76878661006167    2.67692566850757    4.69175151864950
H         3.21551684998463    2.54604506615504    6.36987214980077
C         4.16547359334531    1.97807584024727    1.74053979078059
C         2.52897002333810    0.31313298173306    1.83864787153254
H         2.44624189736341   -0.43666182591171    1.04959115421191
H         1.54690195088335    0.43699991612897    2.30313088985965
C         3.62449843881821   -0.01515944204645    2.84025854217118
H         3.25697994508042    0.03323267967106    3.87065533085204
H         4.08441850814896   -0.99118918534128    2.66909686779484
C         2.05049796309566    2.25677084879824    0.41612829761909
C         1.84189144729543    1.77378940284025   -0.88274767910627
C         0.84746302636758    2.36360779081817   -1.65423205718159
H         0.67434872583812    2.00581148257541   -2.65658740369173
C         0.07007322543832    3.38961555667141   -1.16190375940079
H        -0.69918073760544    3.83197109048023   -1.77751890794074
C         0.27204219293400    3.84073011629145    0.12581529126265
H        -0.35280979147413    4.63052267701462    0.50960177780013
C         1.25667289301670    3.29037802793632    0.93388989850149
C         2.60091784825400    0.60628587672800   -1.47292046846481
H         3.44942553000197    0.36318331959521   -0.82985698065237
C         1.67068757639024   -0.60859481906987   -1.59059938918587
H         0.89963951040299   -0.42148327561187   -2.33461006319006
H         1.17145463350855   -0.83201255606867   -0.64879894892647
H         2.23755140317255   -1.48406448779504   -1.89997702113528
C         3.18226600333312    0.93885711759061   -2.84866840760270
H         2.40332556048484    1.12846109144031   -3.58245638895031
H         3.78509485861263    0.10341301142049   -3.19612010402508
H         3.82792546524294    1.80785109841295   -2.77792618169257
C         1.39138689345933    3.78200519223468    2.35752974919938
H         2.36227077648858    3.46326885219027    2.75387045904013
C         0.27802609432158    3.17237586572228    3.21766348523465
H        -0.69637159496177    3.48209982723458    2.84601443480350
H         0.37371494482383    3.50222471726438    4.25004800081684
H         0.31350363514583    2.08464051512479    3.20275859841932
C         1.34061687898416    5.30878973508745    2.43564748302255
H         2.07000164822419    5.73114141526550    1.74989303223246
H         1.57149240433735    5.63977162434565    3.44456870780161
H         0.35458315857456    5.68737843602814    2.17989362035909
C         5.86741994869938    0.95450023882236    3.23024332291112
C         6.00347194884865    0.13880024271770    4.34771122513830
H         5.14901613706894   -0.37613204220407    4.75727819114326
C         7.22706539520962   -0.02132510938371    4.97044282468127
C         8.32519500446153    0.65667302633436    4.46120280222774
H         9.26681278956070    0.51897384902213    4.96561698055813
C         8.24768673247046    1.48432304313821    3.35433457018093
C         6.99449833161841    1.64025831983813    2.70558721753966
C         7.36302440516549   -0.88097998065752    6.19228744982064
H         8.29800349606449   -1.43663330197301    6.17004911112797
H         6.53826145369368   -1.58559219968548    6.26765527298906
H         7.36390667076962   -0.26167188654542    7.09027989371816
C         9.47092530540688    2.24405249822894    2.85282888550245
C        10.73772082644277    1.95125230121383    3.66923499930697
H        10.57732993069495    2.22064695063142    4.71549282350254
H        10.97936700325458    0.88726218901227    3.61527392236171
C        11.92151655762664    2.75726562531348    3.13237175748538
H        12.80990068123947    2.52508296773888    3.73240353619047
C        11.61854269926840    4.25057579000574    3.23049479010719
H        12.46757708229214    4.82919849682439    2.85790983985128
H        11.45351926090052    4.53181404935362    4.27314866649470
C        10.36972943034492    4.55758790637915    2.40793808993745
H        10.13170574921457    5.62540190350680    2.48421313435453
C         9.19117965808690    3.75128127659067    2.94518260708463
H         8.29725989866991    3.98167650244563    2.36334854982789
H         9.00013611917466    4.02654959808376    3.98511858777934
C         9.75248515240459    1.87844881651930    1.38839456374922
H         9.97499839513920    0.80996060229222    1.32039282786295
H         8.86064202243226    2.07634580367666    0.79019112401508
C        10.93025856723925    2.69254317735940    0.85568266717179
H        11.11209800144567    2.42356328429618   -0.19103934325446
C        12.18123254512535    2.38554235097706    1.67529956845752
H        13.03254611671096    2.95304825247164    1.29063433573430
H        12.42505919561408    1.32321405335136    1.59830428451203
C        10.61010091385423    4.18358535559847    0.94757279335337
H         9.71311007758170    4.40435549671390    0.36309902848539
H        11.43698419440754    4.77023113192762    0.53752393904734

