71
CSD_code = IXACIU | q = 0 | S = 0 | Stoichiometry = C29H38Cl2OTi | MND = 8
Ti        1.01011527899689    7.09474195866870    4.27479636835357
Cl        1.15793919416395    6.83239549685592    6.42540915362271
Cl       -0.83792148757282    8.23255252878873    4.20221162577897
O         0.51090089795587    5.55036647710634    3.75049564329406
C         2.51778217518861    6.61659017980461    2.62111949600563
C         3.22104416188172    6.83597985072925    3.83899082753941
C         3.01263947414950    8.19100154117246    4.22607093928502
C         2.15046790493729    8.79557811543773    3.26709598743843
C         1.82603974745588    7.81480791803230    2.28597346163444
C         4.08375375538843    5.82970532471961    4.54200941616602
H         3.94809517291951    4.84441798829682    4.09492176083903
H         3.82485884894591    5.77359940701741    5.60173781606299
H         5.13739570513913    6.10574260591216    4.46235704692832
C         3.70236870269826    8.88015241209300    5.36618309382629
H         4.68425002501353    9.23908918426056    5.04768203264392
H         3.84361999246726    8.19445061571659    6.20152946491704
H         3.12459301735081    9.73533004298198    5.71552918838429
C         1.75783793178140   10.24268056037297    3.21225424275787
H         1.64407968292229   10.65753355237231    4.21404902552014
H         0.81446714822931   10.36417980951204    2.68138319571505
H         2.52431228850292   10.82009593591767    2.68938716495534
C         0.96604272354105    8.01342764277346    1.07229235641841
H        -0.00110200644961    8.43863854931181    1.35000376448148
H         0.79843226189236    7.05801402542122    0.57426160955848
H         1.44863493558401    8.69322337231775    0.36698738186298
C         2.13964064344832    5.27653620528641    2.11860193398488
C         1.01750820854135    4.76218896938116    2.80359608940259
C         0.50253347440887    3.50132104590213    2.47889538081885
C         1.14230799259278    2.79532196206099    1.46525598810513
H         0.75722437343046    1.82560430614750    1.20709267276148
C         2.24760808471172    3.28210312391738    0.77677421424159
C         2.74098464041767    4.54099941990527    1.11958373899232
H         3.59690895843996    4.96113703032520    0.61386858332304
C        -0.70610056684275    2.98763578638124    3.24284946525377
C        -0.35413440759551    2.90582246724396    4.73949836143912
H         0.46413264889508    2.19309492886129    4.87647122152935
H        -0.01633334391418    3.88120713696020    5.10460327911354
C        -1.57460342770961    2.46532799304938    5.54366070899529
H        -1.30761270559489    2.42668856766536    6.60582779797220
C        -2.02160841041172    1.08128628435351    5.07847564981754
H        -1.21859889734014    0.35751595378572    5.23808853432667
H        -2.88812068369555    0.75283789302963    5.65689721751009
C        -2.38059306745371    1.14621232860881    3.59582019391413
H        -2.68761131163618    0.15165421900973    3.25039012456759
C        -1.16365535707915    1.59753702214211    2.78555773407787
H        -1.42968908018915    1.62287630898168    1.72614480076649
H        -0.35546826766260    0.87528745267477    2.92334341128649
C        -2.70473872767295    3.47308712098221    5.33965155803332
H        -3.57174735571891    3.19011068928026    5.94109286122872
H        -2.37606048246908    4.46471290258860    5.66383325761649
C        -3.08512662978626    3.51622037723632    3.86053071928567
H        -3.90223348342816    4.23180170461126    3.71470786610097
C        -1.87782977848243    3.96596599874236    3.04171029563612
H        -1.58848079199491    4.97500408140753    3.35288662858573
H        -2.13582522879392    4.00204424507572    1.97944422965496
C        -3.53046935508607    2.13095663858313    3.39736981560111
H        -4.40170822768423    1.80579439146954    3.97053523803522
H        -3.81675790257382    2.16500512424927    2.34332477962775
C         2.93599862483669    2.49832855806265   -0.33130890258284
C         2.87060964209814    3.31253361525803   -1.63134956231564
H         3.34641488252465    2.76370622537290   -2.44111157518065
H         3.37453840390885    4.26898747115085   -1.52636177473696
H         1.83441812348035    3.50081232903792   -1.90399097708601
C         4.40138324868704    2.26151752197081    0.06095899860564
H         4.45446564819073    1.70819322756557    0.99608008023782
H         4.93481725763557    3.19896383534357    0.18885449014669
H         4.90674419655158    1.68476412825006   -0.71057657628731
C         2.28736678138617    1.13596580956676   -0.59021492015434
H         2.33235041547762    0.50580991990014    0.29473251098740
H         2.82220197979440    0.62838729777292   -1.39034054649235
H         1.25080172827131    1.24713528525783   -0.89898766073199

