62
CSD_code = IXACOA | q = 0 | S = 0 | Stoichiometry = C26H32Cl2OTi | MND = 8
Ti        3.25941700936357   13.20807614681036    1.69657069117347
Cl        5.24448161352266   13.37304088253069    0.83157810886755
Cl        3.26341838420025   15.01609770281155    2.89825222019681
O         3.46930417017117   11.98642781153520    2.86860869053064
C         1.57238946112999   11.74376337482602    1.20349705931792
C         1.00984638943219   13.01322705242256    1.51893563123866
C         1.44149629373357   13.94086386617023    0.52794097719791
C         2.30066117823244   13.25212597864043   -0.37539340020772
C         2.39895679457345   11.89763666168399    0.05512141191843
C         1.70702283655722   10.64153959485935    2.18227660302043
C         0.07585832596056   13.29557461620225    2.65887457867901
H        -0.93053117639251   13.50141815670118    2.28841833712324
H         0.41467514791094   14.16436449067124    3.22801623350499
H         0.03049601068197   12.43480843859760    3.32668116834423
C         0.95365249444780   15.35301258468892    0.39244906234510
H         1.68682892961616   15.97409034703521   -0.12145156992127
H         0.75871630411948   15.78845058272198    1.37222776846370
H         0.02518903145416   15.37427062583052   -0.18351457324500
C         2.88974067999940   13.80884752669275   -1.63796394826073
H         2.17149147095027   13.72247590249815   -2.45700571236002
H         3.79174387533366   13.26407406789339   -1.91345538850979
H         3.14641648566353   14.86193916381128   -1.52082694306978
C         3.17315494034814   10.80027587794666   -0.61411127110327
H         4.20757184149764   11.10640342373804   -0.78520792342672
H         2.72664135786775   10.54946536277223   -1.57868954601567
H         3.17112485313152    9.90736662603081    0.01171840956118
C         2.78009926412246   10.86448545146629    3.07162573604295
C         3.07512398785881    9.94798520754331    4.09290289187042
C         2.27151923732736    8.81854403695844    4.17305290461353
H         2.46084355257870    8.08473698521252    4.94024679020571
C         1.21501079325541    8.57950660883549    3.29953028549180
C         0.93287422759229    9.50311540308337    2.30021592230849
H         0.11398925505101    9.33887905687361    1.61497807715429
C         0.38619445465257    7.33969517861546    3.45616360928569
H         1.02265496631022    6.45996107323958    3.53092799505317
H        -0.28776261028008    7.21387672785240    2.61313155416703
H        -0.20929080968978    7.39706973755461    4.36709052596872
C         4.22943261479231   10.24708101727646    5.03320249583236
C         5.52959613769865   10.36150622955148    4.21687253358447
H         5.72965026998147    9.40487648017894    3.72597014452364
H         5.42437612017453   11.12446947555462    3.43867402919073
C         6.69295997837350   10.73582216904805    5.13182241442018
H         7.60516863573369   10.82566168642935    4.53117854634916
C         6.88215416370059    9.65055609896425    6.18932954933315
H         7.10989680775001    8.69683913351951    5.70709769519126
H         7.72077759289287    9.90454542562017    6.84162786914032
C         5.60200143978103    9.52784502109916    7.01241773676317
H         5.72486519683425    8.73882213060396    7.76411001925963
C         4.43010414093468    9.16331333199427    6.09892466889739
H         3.52452308551640    9.06257505722761    6.70176588598320
H         4.63537930488286    8.20352305242526    5.61902026880112
C         6.39480673061107   12.07341475225413    5.80737572390190
H         6.24915624213586   12.84535818931222    5.04626181089732
H         7.23750210279761   12.37157867237923    6.43541658630463
C         5.13036101969376   11.94346662192703    6.65506929262097
H         4.92094942248498   12.89992789851283    7.14732791658854
C         5.32132201848524   10.85649594677578    7.71047173958525
H         4.42223380290361   10.77334635197306    8.32592627007186
H         6.15451798516805   11.11445016539983    8.36813843788970
C         3.95371786617391   11.58002779992839    5.75302130299718
H         3.79949802882739   12.38152721933935    5.02315475162583
H         3.04002826943718   11.48407773930665    6.34650934269459

