95
CSD_code = IXADOB | q = 0 | S = 0 | Stoichiometry = C41H48N2O2PRh | MND = 4
Rh        8.93345444694624    4.94026022204127   11.80038775008440
P         7.00561247217376    3.09898468241582   13.14536174776267
O         8.73047886005270    7.84932557480639   12.45922243348581
O        10.18844239604684    5.85105948474617    9.24382105153396
N         9.39608466655530    2.97381851167503   11.37693610331699
N         7.75736609134170    4.49415049865393   13.43454026967200
C         8.73983772827398    6.72871465127616   12.21158296395924
C         9.77949277507122    5.43144052742587   10.23037133219298
C         8.12426933953913    1.75681441238817   12.98058058128415
H         7.95908249120659    0.85666929279918   13.54959501611516
C         9.13959967790640    1.85316899366769   12.06064634734457
C         9.96183379276800    0.61509395131102   11.80187485182527
H         9.81320017186259   -0.11218165099092   12.59617379760265
H        11.02010809183997    0.84882273839744   11.71948212811383
H         9.65253062982776    0.16540309508886   10.85879438535596
C        10.34289015996082    2.84322630446659   10.31723756830383
C        11.70278600908421    3.13785420995431   10.51684048048070
C        12.58958470715887    2.95923688431234    9.46493276521364
H        13.63863209185559    3.17060965265771    9.61024283608235
C        12.15682642483537    2.51319541633373    8.23181598470631
H        12.86231883327999    2.37813230642930    7.42516481927172
C        10.81484811114691    2.25560339436636    8.03141943443759
H        10.47775048294229    1.93127256901815    7.05828405569921
C         9.89789333794973    2.40241813790184    9.06110912206446
C        12.21200603394819    3.67301970663042   11.83811306260608
H        11.35139422681027    3.81228496832113   12.50929056931833
C        12.88120695030714    5.03758624915863   11.64631525754355
H        12.16878499188021    5.75706501436622   11.24616366398934
H        13.72345298781233    4.96946339684545   10.96237144310415
H        13.24657292769324    5.41439420616961   12.59899310618864
C        13.19218309771093    2.70284367666508   12.50180138463917
H        12.72090692816560    1.74413748950364   12.70669607547375
H        13.54360457192085    3.11455862616237   13.44599987048240
H        14.05605807377509    2.52873791465509   11.86387970770810
C         8.42755269303005    2.16804849837731    8.79724054194400
H         7.88897090697353    2.20790565109708    9.74892677043373
C         7.89361257890986    3.29317223012142    7.90701840681920
H         7.97548175126432    4.24785065091214    8.42442896615209
H         6.84714098982818    3.11961888023334    7.66649450886354
H         8.46050483396834    3.35253700491601    6.98060856052173
C         8.15530186801769    0.80578316291158    8.15868951824167
H         8.60016815633520    0.00538054482998    8.74655445786133
H         8.55978610437377    0.75409474377037    7.15099294066825
H         7.08196536245324    0.63415214254203    8.10349610425882
C         7.58503866573645    5.27351292472571   14.59687464905527
C         6.38394314165039    5.95230385474744   14.86052515847105
C         6.30065250886303    6.76334782205774   15.98229737447358
H         5.38865514062798    7.30576231284387   16.17846679673907
C         7.36645849432896    6.90156701234804   16.84890069188235
H         7.28500334781301    7.54539798406331   17.71222697385303
C         8.53563930757317    6.20925259891778   16.60410377367212
H         9.36466888455093    6.31230822374668   17.28792332118894
C         8.65945447823641    5.38572553302561   15.49634271079646
C         5.20732087229293    5.85905674311741   13.92022725591998
H         5.33587284869257    4.96530870400590   13.29717618385016
C         5.17438111388373    7.08065281914794   12.99812505380849
H         6.10355293936616    7.16650562870473   12.43972035203416
H         5.04646256736726    7.98946104463076   13.58237227446782
H         4.34994246237337    7.00045538966871   12.29200810403464
C         3.87364116225574    5.71898693045054   14.65458892599352
H         3.93857293136127    4.95972272455014   15.43083906557531
H         3.09356836972355    5.43072820303060   13.95230148968513
H         3.57685215447597    6.65869162051725   15.11368779572244
C         9.94783911429017    4.63082087768655   15.26482537198316
H         9.77067252016196    3.87930211581434   14.48300115941870
C        11.03175712839766    5.59220559935981   14.76999838966294
H        10.76576150640317    5.97952721799975   13.78217314251877
H        11.98708819860045    5.07723658864074   14.69868486081639
H        11.14009586036890    6.43146062112849   15.45423754610439
C        10.41988138825974    3.89661398119766   16.52157591209442
H        11.23390811074590    3.21919693086215   16.27027559388375
H         9.61159364733915    3.31400842384700   16.95938246819978
H        10.78260390151378    4.59337729561863   17.27345689394535
C         5.99943164109944    3.13121925432068   11.61394128812371
C         5.88673550613362    4.24794734614251   10.79612704804178
H         6.39784578448839    5.16998401953345   11.06766188706749
C         5.12436923250163    4.18351080848548    9.64263810507896
H         5.03203811239014    5.05455229543236    9.01054105232301
C         4.48362614050930    3.00487330711499    9.29661320790297
H         3.88570879313739    2.95856234938650    8.39796770343190
C         4.61872836804563    1.87933349258462   10.09506029810047
H         4.13245660075804    0.95546316940905    9.81631964700215
C         5.37891710134799    1.94068459396596   11.24758781773004
H         5.50685302128603    1.06637634661602   11.87330659365013
C         5.90443160996769    2.64218410825467   14.50864544620766
C         4.53706943933414    2.44069526541983   14.39118292525132
H         4.05169107425772    2.54744435216783   13.43134028097433
C         3.79607321792360    2.10540327720229   15.51128739895709
H         2.73174655589194    1.94354661028091   15.42096236543393
C         4.41190905328202    1.98768777286524   16.74655632829146
H         3.82651757402022    1.73447575328067   17.61811881078937
C         5.77690286717871    2.19643840341627   16.86598247992768
H         6.25652714899154    2.10737242815052   17.82954179780368
C         6.52231881225097    2.51764032995018   15.74776363375559
H         7.58973975315683    2.67457837023176   15.81844185157304

