119
CSD_code = IXADIW | q = 0 | S = 0 | Stoichiometry = C44H70N2PtS2 | MND = 4
Pt       12.23174875455056    1.66196037115701    3.69850513192328
S        12.31555134949984   -0.49953095766208    4.70493410892617
N        13.54059632839054    3.30620031261801    5.93684180002711
C        12.47361322470583    2.71737974084568    5.42911164690353
C        11.37196489406779    2.69981048353729    6.49937769796967
C        11.90887333396617    3.68264952143616    7.55145376219913
H        11.54836201621578    4.68831945796081    7.31988177159712
H        11.60342015391599    3.44265538173053    8.56369446749097
C        13.42872909645075    3.64057751003472    7.38514548048584
C        14.09101290271347    2.53944418416162    8.21856431121074
H        13.73931952638643    1.55197872708545    7.94285025384409
H        13.87795344830446    2.70048950822110    9.27294390943079
H        15.16875277212494    2.57726399268496    8.08040538252201
C        14.08364194914328    4.95582941352655    7.79238045593846
H        15.12328100182798    4.98337855300651    7.47533057645269
H        14.05808085741283    5.03076297131696    8.87751430809703
H        13.55958508095408    5.81600904001667    7.39049220448078
C        11.19433520852231    1.26125931733942    7.05138394671811
H        10.45922643839187    0.75862635458561    6.42293676107440
H        12.12224053933188    0.70133267100645    6.92818137424082
C        10.76686280115474    1.12104231683609    8.50994542564059
H         9.91115310024120    1.74359398581176    8.75151328060118
H        11.57753347042000    1.36172796004239    9.19381902792457
H        10.49087579098819    0.08339401783662    8.68646358382290
C        10.06057966495246    3.17780521336916    5.84928455126673
H        10.19533158564394    4.20479648201675    5.51672529489495
H         9.89008000065579    2.57262833434948    4.95450173335077
C         8.81630289975405    3.12760253905642    6.72532704543847
H         7.98355830848681    3.56694596531699    6.17906050854748
H         8.95933632517840    3.69533316926082    7.64261214044313
H         8.54756077554569    2.10665559333463    6.97790698869959
C        14.79468426713579    3.50717948767976    5.26737264691607
C        15.71393072033263    2.45204867079120    5.14250521786951
C        16.97497010048123    2.71457004317436    4.61753291697338
H        17.68813598315927    1.90969113050584    4.53774048037141
C        17.33513125547366    3.97467213387228    4.19530711096871
H        18.32346424224335    4.15983164731391    3.80109517089367
C        16.40766642215376    4.99211707200709    4.26262682578109
H        16.67604097518803    5.97269073085289    3.90193596403458
C        15.14018924000988    4.78550421045746    4.79241339568289
C        14.20184449901343    5.97260892614532    4.77141695847113
H        13.28198172648433    5.70948272046171    5.29593173766872
C        13.83186518320221    6.31943370653681    3.32715436293723
H        14.72365690754103    6.41795534066465    2.71247279196383
H        13.29297249186134    7.26314147572113    3.29432039345311
H        13.19852665393067    5.54111724150320    2.91219875578163
C        14.82113015709986    7.21597416671040    5.42464014571140
H        15.53786235109601    7.68422110262004    4.75490135069111
H        15.33527366727500    6.97778411456929    6.35100103207241
H        14.04332556212728    7.94631033403731    5.63954709027742
C        15.40752179499027    1.01152323358829    5.47209536312779
H        14.40246250536125    0.93183920236746    5.89084311860927
C        16.40146484292693    0.40921861594521    6.46831907719459
H        17.38210291047012    0.28127853659135    6.01639613253991
H        16.04759337381408   -0.56924707162382    6.78447405654361
H        16.51469835313116    1.03408347129891    7.35130066626057
C        15.42173243932352    0.20142634683813    4.17276800249993
H        14.64798497833483    0.57475799310985    3.49852393190700
H        15.20831024976285   -0.84259804869612    4.38764953981527
H        16.38206727362956    0.26808625209494    3.66685642520178
S        12.14682943918938   -0.49961942435798    2.69231713546521
N        10.92199938827417    3.30610621095852    1.46027821903354
C        11.98894442568774    2.71717388452817    1.96795798643739
C        13.09057414254993    2.69948889431289    0.89770088586158
C        12.55379954954251    3.68240806041135   -0.15435901141538
H        12.91456666958883    4.68799832043154    0.07714136024447
H        12.85911929662012    3.44229553335520   -1.16661127170033
C        11.03393650940232    3.64067702200081    0.01202016896871
C        10.37131449110129    2.53984519262008   -0.82152301501792
H        10.72301445309727    1.55226985300359   -0.54620681594122
H        10.58403907907391    2.70117266001785   -1.87592708248643
H         9.29362341615282    2.57772431445957   -0.68299173560746
C        10.37937673895744    4.95616891027908   -0.39501335810433
H         9.33984801624795    4.98406465687559   -0.07765221106589
H        10.40463672128677    5.03114338579739   -1.48015017846839
H        10.90386421458350    5.81615170976302    0.00674637016647
C        13.26807765472699    1.26096370201845    0.34560095905408
H        14.00282717287079    0.75807787907550    0.97425732108484
H        12.33999107076479    0.70123785619740    0.46837778547411
C        13.69610877521272    1.12085260815619   -1.11281707510941
H        14.55184168355376    1.74350617339501   -1.35401271349717
H        12.88567525771562    1.36153552557025   -1.79697569473147
H        13.97226697892864    0.08324987844816   -1.28933989802661
C        14.40192945054910    3.17731354753041    1.54797301634606
H        14.26713319196564    4.20420509645459    1.88083002638271
H        14.57237391467475    2.57189940761761    2.44259672237447
C        15.64629307170138    3.12737464342249    0.67203578818190
H        16.47887718776338    3.56695538260189    1.21835981952556
H        15.50321380439773    3.69502618747534   -0.24528990461769
H        15.91531473058007    2.10647772723216    0.41954100324898
C         9.66791930024111    3.50701521635466    2.12979509620347
C         8.74870404543440    2.45185337552742    2.25467910822263
C         7.48769116216407    2.71432894642120    2.77974452769263
H         6.77453675678732    1.90943645471966    2.85950257983322
C         7.12752394074091    3.97438873230867    3.20208130130782
H         6.13921744799613    4.15948770383449    3.59638531771686
C         8.05496149653550    4.99185594264054    3.13475234916622
H         7.78660475222556    5.97240468042186    3.49552511981494
C         9.32240129647015    4.78530115577562    2.60485615927143
C        10.26067823943244    5.97245823226568    2.62581313362854
H        11.18058430811555    5.70932680461347    2.10138652335273
C        10.63056168774432    6.31950529208371    4.07004930210717
H         9.73875557912239    6.41764139021509    4.68477010225681
H        11.16900651579187    7.26347461494754    4.10282095583709
H        11.26428055377601    5.54150445017062    4.48500861344822
C         9.64130519400109    7.21570638760354    1.97243263881303
H         8.92482212514554    7.68419005366682    2.64227422068910
H         9.12684543491870    6.97732497134092    1.04629896962974
H        10.41910341967735    7.94591321990863    1.75707478373068
C         9.05503990037998    1.01132428818127    1.92502584751953
H        10.06011400001257    0.93158564420383    1.50631702866461
C         8.06110736544283    0.40914452813451    0.92871168104599
H         7.08046582033479    0.28114153239788    1.38060829618270
H         8.41498392376741   -0.56927659758560    0.61242791673480
H         7.94788561364869    1.03412655234980    0.04581208730191
C         9.04068186288510    0.20119988928268    3.22434140068290
H         9.81468026274983    0.57421434320411    3.89848512454976
H         9.25361540001221   -0.84291737778375    3.00941744850362
H         8.08045736986689    0.26826985409964    3.73040816964701

