71
CSD_code = IXAFOD | q = 0 | S = 0 | Stoichiometry = C27H39CoIP3 | MND = 6
C        10.96714372630259   11.09614336996706    4.37546113579432
H        10.29093754106301   10.62405780111706    5.09536203792009
H        11.95120194077678   11.23368728285603    4.83087344897860
C        10.42450436813740   12.40861306375810    3.91923849236576
C         9.05790070747241   12.66491711866768    3.98242291026752
H         8.39413067151757   11.91150148869320    4.38455067544571
C         8.54418999181415   13.86914091457891    3.53639873201236
H         7.48066275363696   14.05148610847040    3.59152757460996
C         9.38978064690270   14.83648024375892    3.02016948040784
H         8.98880813058056   15.77498567282532    2.66711090025872
C        10.75266575788963   14.59761207257743    2.96851852549898
H        11.42029261967602   15.35164876644913    2.57822347796664
C        11.26739782071309   13.39511421412563    3.41802658688015
H        12.33346544684284   13.22241659510117    3.38490114396996
C        12.44684454417992   10.79978175515046    2.04470299199024
C        12.14429512810220   11.51975255163023    0.89352171368389
H        11.13893561546465   11.53072946798439    0.49717966748200
C        13.13147989073877   12.24302383044805    0.24828162260403
H        12.88590496034535   12.80293331810239   -0.64278640673387
C        14.42610956963972   12.25247013122001    0.73904843213002
H        15.19280754142982   12.81651447307833    0.22882621364180
C        14.73504442337858   11.53622655166501    1.88356429107627
H        15.74345115286880   11.53441212196241    2.26924983008550
C        13.75058595500039   10.81612799265540    2.53238621180181
H        13.99723449480162   10.25129064483490    3.41994856992913
C         8.65239486009126    9.30708859687354    2.88371036457782
C         7.32842779449601    9.72240221097841    2.92387846661135
H         7.03559550460193   10.59783028593281    2.35749208030515
C         6.39371207779787    9.03636266117910    3.67481623764998
H         5.36482392348896    9.36485712582354    3.70288471402931
C         6.80369809960301    7.92846497070191    4.39056458486973
H         6.09472866469727    7.37699628755264    4.99297373113546
C         8.12410198253321    7.51015440547286    4.34279241866922
H         8.37641892841325    6.63198979788334    4.91497210113996
C        11.24249849776974    5.38582300771598    0.77407076369568
H        12.25876786820923    5.18660445673538    1.10752859741757
H        11.21037385854342    5.34765841591827   -0.31576718180568
H        10.57393665489264    4.63004604548112    1.17965673687822
C         9.01729287025773    6.99703700028565    0.59243080946501
H         8.54339583475711    7.97408424882501    0.55904836137114
H         8.41066791101107    6.35280879097556    1.22777467560441
H         9.05885901071248    6.57696924112267   -0.41294019451703
C        11.64040254720260    7.99723230738316    0.00373174815728
H        12.65659736329549    7.60474682403602   -0.02878699483349
H        11.70129922864117    9.06113652534219    0.22396959113828
H        11.16103932117389    7.84961208548621   -0.96470706338542
C        10.17544250244857    7.86964539484961    6.86790648152154
H         9.53418940500492    8.70955788858214    6.60621803140480
H        10.62398814047202    8.04086509104934    7.84636175058175
H         9.56463796737527    6.97068155934737    6.90728581892586
C        12.33419384797969    6.18090303731280    6.30192015761196
H        13.33034463839571    6.10072658980286    5.87002675154233
H        11.78329421087482    5.27048859899317    6.08222344524099
H        12.41219489122127    6.30138814909854    7.38317016190283
C        12.69355518576370    8.91425861879371    6.24686632798035
H        12.18372528122021    9.85076018145501    6.45867661949785
H        13.48670288456163    9.08168002955272    5.52064048133561
H        13.13870921034722    8.53747688707113    7.16808820238375
C         9.64271808057578   10.10333100827949    2.08263498562436
H         9.35884839592306   11.15740978714542    2.00873885143630
H         9.74784068809728    9.69551901931607    1.07173246988993
C         9.08802290601547    8.17925112009219    3.59396882280179
C        10.43949773247801    5.71809251962291    3.74583053800945
H        11.28412652375290    5.05752555103069    3.54284353650198
H         9.60536599037228    5.41094440943452    3.10982338706211
H        10.11868312917690    5.52683093915894    4.77201250082305
Co       10.97339132556843    7.63133194808280    3.43008281207974
I        13.53561559926683    7.17863719075248    3.01006698361134
P        11.50149790304570    7.66416851639559    5.61116261870207
P        10.71724614086104    7.06477831193494    1.29440165033106
P        11.20535921774599    9.85837480911055    2.99571380477722

