106
CSD_code = IXAFEU | q = 0 | S = 0 | Stoichiometry = C51H51ClN2Pd | MND = 5
Pd        7.24435217201153   11.16856274964780    1.94811884455118
Cl        8.43492675703452   10.95641632007259   -0.05962503177085
N         9.69267269017145   10.40026294267227    3.46930575370160
N         9.99675443643377   12.27661008867194    2.46972813313597
C         5.21682890671055   11.12202283905568    1.22871340380035
H         5.03726368004417   12.19376544319033    1.12293857090236
H         4.81145658762651   10.51498884270033    0.42448411953414
C         5.31440586229643   10.58142391364274    2.50958285833029
C         5.91042097117842   11.33815005110527    3.54024526278928
H         6.03740683934632   10.85922993952845    4.50538982572368
H         5.69084513176312   12.40288521826998    3.59456252560987
C         9.05333722424983   11.38461399089848    2.80413655314856
C        11.04534533092015   10.65801364395491    3.53429604636810
C        11.23681403349099   11.84385328716980    2.89066000854599
C        12.02222252691146    9.73945822885042    4.17429359179384
H        12.71260554215010    9.34295872724969    3.43043777661668
H        11.50032363608826    8.90489293609925    4.63433830069830
H        12.59761370130112   10.25548903786258    4.94190808625737
C        12.50035815216897   12.58039516426795    2.62785135596876
H        12.60151794775208   12.79504394836828    1.56492059431412
H        13.34177053787608   11.96966208486972    2.94167638233466
H        12.53588431548392   13.52277682261684    3.17547210239500
C         8.95165171449701    9.37633806938103    4.12324866638837
C         8.57413601152914    9.55817980870217    5.45610681447646
C         7.77579897074595    8.59445084657188    6.05603133964956
H         7.46108452867519    8.73296565618400    7.07999351160960
C         7.35545287127517    7.46930028186633    5.36225199197045
C         7.74745276224021    7.30829152213285    4.04054486639462
H         7.42267788698767    6.43529708411782    3.49317572909744
C         8.53444952704409    8.25489201310143    3.40115795855167
C         6.47104816830112    6.45323653971785    6.01817320688117
H         6.56905874941166    6.48990029458321    7.10052570208669
H         6.71057344874861    5.45017474263741    5.67214261320349
H         5.42913604615949    6.65299053375260    5.76624447321479
C         9.05020823373144   10.77710947501767    6.21732374818736
H         9.21506025829605   11.57853070634652    5.48863036326715
C        10.35880323374625   10.52424353894022    6.93449317012280
C        10.75020690001253    9.25697311546531    7.34562262604097
H        10.12142606646824    8.40413906579760    7.13378373659523
C        11.94523264792764    9.07442044762047    8.02014159328929
H        12.23694286424310    8.08210229077999    8.33207137670679
C        12.76376578454952   10.15547061817186    8.29546485217129
H        13.69621169252078   10.01158575091130    8.82083173427478
C        12.37825618582477   11.42376807046741    7.89493842166070
H        13.00953149197551   12.27419125739027    8.10821420821681
C        11.18459472702504   11.60475123368489    7.22102398805533
H        10.88587195252018   12.59769790775119    6.91646105703687
C         8.00343096685049   11.28840819553952    7.18381324224945
C         7.11071375254633   12.26272800187575    6.75610480820423
H         7.19032994290009   12.65511236875977    5.75238957045550
C         6.12597911331874   12.73588145798190    7.60422985099840
H         5.43485907515895   13.48893078080982    7.25460891474978
C         6.02769391335112   12.24757120816059    8.89587948252248
H         5.25980653722276   12.61629551673387    9.56001070654154
C         6.92500783051906   11.28943649596685    9.33516252707691
H         6.86111110374862   10.91164986873920   10.34542554773404
C         7.90779851887636   10.81251588282738    8.48530704771309
H         8.61286348174424   10.07492054467127    8.84205754051318
C         8.98809098876267    8.08904541391301    1.96741374532003
H         8.90579603048185    9.07098827956206    1.47644574713718
C         8.07127496002859    7.16427404816269    1.20152749492971
C         6.88223243396914    7.70140805417847    0.72311824977799
H         6.68865148384610    8.76182447705967    0.87895084822536
C         5.97650912973070    6.91462915016334    0.03876792965032
H         5.05679699238171    7.34332032564980   -0.33308604724346
C         6.25388622264357    5.57453711579854   -0.17918516051143
H         5.55042524988495    4.95530941017779   -0.71673106960506
C         7.44020093006111    5.03476552790182    0.28543403035660
H         7.66409919019973    3.99209406385342    0.10991043449834
C         8.34630251412348    5.82387386469745    0.97475712011982
H         9.27216367384397    5.39382231014005    1.32872758835027
C        10.43833944590239    7.67996920591187    1.90147874150405
C        10.97419674652830    6.74491964982566    2.77858116761622
H        10.34823813677172    6.30751033012812    3.54453001283336
C        12.30420889501928    6.37459949223536    2.68073343789097
H        12.71116378504335    5.64438774355140    3.36578874305062
C        13.11303875076340    6.93773569536840    1.70829750886815
H        14.15110009906144    6.64757233630123    1.63270324391986
C        12.58630593141601    7.87524640861631    0.83507901946763
H        13.21408618675470    8.32020649559732    0.07668419647959
C        11.25672816912049    8.24462055085845    0.93128378708066
H        10.84513445539609    8.97824269360969    0.25310995749780
C         9.67226023534585   13.53625374403147    1.82670160434920
H         9.46645464068408   13.33498341657744    0.77219476062839
H        10.53726257403045   14.19925496493862    1.90345261893714
C         8.46308209558987   14.15058289120762    2.50602679533500
C         8.55891549491008   14.53977198106105    3.84742568839981
C         7.44232859808012   15.04032477798807    4.50365985494876
H         7.52781632492845   15.33139431222910    5.54164291085089
C         6.22627388368496   15.18146761212676    3.85673907157220
C         6.15924865604397   14.85319361518680    2.51023304616846
H         5.22709054900538   15.00634118999818    1.98245313184711
C         7.25408564023803   14.34682120691885    1.81793271644630
C         9.86098881844705   14.48216364971081    4.59341966513402
H        10.25488409156096   13.46952263126591    4.65024239746096
H         9.72969622459152   14.85517452339357    5.60679329493997
H        10.60720046702213   15.10382387146387    4.09733875237471
C         5.01898176271360   15.70913013812760    4.57153061521810
H         4.72278560775288   16.67092124106725    4.15295350635006
H         5.22227483060809   15.84307170392375    5.63143971142757
H         4.17806634787911   15.02528328162581    4.45882845173476
C         7.12639315750421   14.12624666959674    0.33698497014424
H         7.25774363985613   13.07016105482552    0.07726734614726
H         7.88042418078375   14.69907513571195   -0.20152425526171
H         6.14605975877666   14.44708216036011   -0.00896128047926
H         5.14615807460428    9.51422416946674    2.66658184554453

