109
CSD_code = IXALUP | q = 0 | S = 0 | Stoichiometry = C38H66O2P2Pt | MND = 4
C        10.40840517407124    6.40597327828878    7.41529286080314
H         9.93465944599057    5.60346663204780    6.83523525758406
C        10.77297866050431    5.84366088428090    8.78584519576523
H        11.16827020457398    6.63795663767753    9.42066290258010
H        11.52532044964719    5.05742672170818    8.69770838590372
C         9.51985407621666    5.27172985136895    9.44970840175206
H         9.12358258277642    4.45616053228900    8.83931015732238
H         9.77762199324798    4.86077053220780   10.42842006997772
C         8.45503090940656    6.35305474128101    9.60482794686644
H         7.55879880896335    5.93060035692468   10.06424997673549
H         8.83066078072892    7.13738910907810   10.26624391857739
C         8.11022639828102    6.95993030050968    8.24793505608228
H         7.37645611914798    7.75897368571892    8.37598125906580
H         7.66385463667075    6.19062729967506    7.61197393675636
C         9.36377570611479    7.50920728917595    7.57457507445824
H         9.76639061311856    8.32653995699798    8.17774764755404
H         9.11767007700519    7.91135214226880    6.58736294787535
C        12.88346720102118    5.49944317568117    6.14973678463323
H        13.23572856864326    5.22331486774619    7.14912350107851
C        14.08017994509748    5.84216525518487    5.26287032826582
H        13.71047645593654    6.18852403666742    4.29350043569334
H        14.65644459978829    6.65760390495745    5.70145818840683
C        14.98950664451834    4.63444346718113    5.05888075153379
H        15.82512610382550    4.91121278805926    4.41273899000196
H        15.40087283768696    4.32007651623729    6.02216057847615
C        14.20999970517476    3.48004063075213    4.44085863677543
H        13.84214374492177    3.77789436713036    3.45639451008151
H        14.86077034916376    2.61314261415124    4.30875063761921
C        13.03060299090566    3.11829215315628    5.33548150384643
H        13.40254886176938    2.77639479688247    6.30510717878174
H        12.46069038876574    2.29840645995083    4.89126787825062
C        12.11963752358892    4.32574237637406    5.54095776163295
H        11.28781296413564    4.03495388614112    6.18626787897647
H        11.71332339071042    4.64231999888023    4.57631980586948
C        12.76606196959599    8.14979942954914    7.40726383697948
H        11.98340538259204    8.67630097438101    7.97218227543321
C        13.52535024325579    9.20472368103633    6.59954144718495
H        14.36481870951318    8.74389042880798    6.07548963804907
H        12.86791976516517    9.63822341288218    5.83944511925810
C        14.05195093755752   10.29801983990528    7.52321722594557
H        13.21161147009179   10.79576515519089    8.01343639924129
H        14.58838773966443   11.04846599508225    6.93930346845377
C        14.97747742736061    9.69995464609488    8.57877830891359
H        15.85965819732084    9.28043876419481    8.08903848224833
H        15.31622967495257   10.47859087718195    9.26544923543192
C        14.26082205911681    8.59874115547156    9.35388329441078
H        13.42394273009315    9.03119264444747    9.90830794868136
H        14.94376312916433    8.14986439623249   10.07910818342289
C        13.73894603076200    7.51869555720425    8.40526236816870
H        14.58741794641707    7.08333117131107    7.87495435322242
H        13.26632859034741    6.72921200777134    8.98813312481393
C         8.43326391543948    5.51605611201693    3.03513488894441
H         7.49311807008497    5.40864587663658    2.48389045838454
C         8.32143749475271    4.76215196788332    4.35817996455387
H         7.48758539666231    5.14645188966692    4.94889318369616
H         9.24229157749444    4.92183511113625    4.92395356347276
C         8.11335954691075    3.26773634497983    4.12654709070931
H         8.04840850637309    2.75260490060721    5.08803468129522
H         7.16677994545060    3.11244193599258    3.60204065943133
C         9.25126205188658    2.68333147484642    3.29793546783149
H        10.18747126052470    2.77598778483801    3.85141662953133
H         9.07316596172261    1.62145270345230    3.11467898852624
C         9.36936488562364    3.42971292796310    1.97434658576763
H        10.20505466868683    3.03235692738075    1.39438432345155
H         8.45720162048395    3.27819575472843    1.39069599274603
C         9.57503043100132    4.92346387731155    2.21019196257801
H         9.65648795155055    5.42840784657595    1.24659193192405
H        10.51504504113610    5.08503998364322    2.74563766963974
C         7.16794895211724    7.84436729990474    4.19949425965771
H         7.18362512702542    7.20963792362080    5.09727146343716
C         5.84277084503059    7.60720922436703    3.48008687063672
H         5.78298531305711    6.59299972094254    3.08282107869722
H         5.74281929311359    8.30868218186260    2.65114490280733
C         4.68778842768327    7.84082308127510    4.45400738536064
H         3.73699926028806    7.66342821794496    3.94602943861554
H         4.76045712422402    7.13171877945070    5.28259555310705
C         4.72658905460178    9.26508600133913    5.00005726197370
H         3.91443043600214    9.41190315284229    5.71521044687767
H         4.57874442696261    9.97062572324301    4.17891344551581
C         6.06899695980278    9.54430998484821    5.66967096439966
H         6.18210510473314    8.89401040517505    6.54044038982316
H         6.10399507044781   10.57856326513106    6.01785149122679
C         7.21428660652413    9.28988065241039    4.69343623858057
H         8.17080791420264    9.48703330839607    5.18246443282912
H         7.12529628748709    9.98103017220060    3.85504047619402
C         8.72290713465416    7.99307876452812    1.57480995173477
H         9.71071165245325    7.67601887553209    1.20702971022136
C         7.67567858364220    7.47720430918316    0.58813090093893
H         6.68523395971693    7.84684766190485    0.85199020118006
H         7.63806300693710    6.38756262558295    0.57757135630424
C         8.02560828530059    7.97214879831923   -0.81635653863047
H         8.99956620477546    7.57232165266368   -1.10901132700738
H         7.28509967016403    7.60215589183757   -1.52961903868008
C         8.07297712292001    9.49633647629586   -0.86020808336975
H         7.08060038279834    9.89565811007192   -0.63515463032979
H         8.34640645458633    9.83067951391890   -1.86310367313576
C         9.07539796884800   10.02748933564815    0.16010643820210
H         9.07456885430512   11.11945659309944    0.15132158185373
H        10.08052668996619    9.69236987087541   -0.10491150088289
C         8.72639544381018    9.52104549838047    1.55613081956233
H         9.45957493837864    9.89142328745038    2.28184796087947
H         7.74097246813800    9.90050769637920    1.83242391678161
C        12.11381003981016    7.51531969507014    2.70448988057517
C        10.66392060751555   10.00107662523159    4.78429691643661
O        12.69287750943653    7.12902840675871    1.78337568374447
O        10.47558315943060   11.08866990533340    5.12120942453735
P        11.78248343466963    7.00641756476221    6.28972383714584
P         8.75568149080014    7.33934700371140    3.33355430411740
Pt       11.08049949322648    8.26535193960783    4.11481071015984

