61
CSD_code = IXAMAX | q = 1 | S = 0 | Stoichiometry = C18H36AuN2S4(1+) | MND = 4
Au        0.52798149869305    5.86632809181320   -0.00060681708721
S         2.26116509777061    5.28929282622810    1.51843849114915
S         0.76758059836496    3.50251152988518   -0.11369025697218
N         2.69815358563368    2.65018480630748    1.53005218820368
C         2.01686272574337    3.65532853225465    1.05323855167978
C         3.72034803260896    2.85750171780466    2.53711504476838
H         4.16273419205753    3.84463141688760    2.38273109457002
H         4.49108877478350    2.09724607917268    2.40085567860661
C         3.13431603868140    2.77106801269066    3.94948491956394
H         2.67939940603999    1.78822622540129    4.08866653212610
H         2.35108507266941    3.52421417789071    4.05604694828560
C         4.19834556499074    2.99167611643340    5.02513790304210
H         3.74543088403381    2.77508642782280    5.99367216360170
H         5.01709495756407    2.28483741057032    4.87858897332039
C         4.74419999212431    4.41424637787174    5.04432558727905
H         5.32418977932255    4.63356711737302    4.15152571822522
H         5.39440918117562    4.54899160340216    5.90402822596100
H         3.93230476043786    5.13427674189079    5.11565723349982
C         2.45477276751590    1.29996438354024    1.06097358806129
H         1.39841343418984    1.21053450599651    0.79618660806364
H         2.67643482689629    0.61115533855575    1.87764276820782
C         3.32216557639336    0.97397573473725   -0.15862134512922
H         3.08947605866329    1.67954332868752   -0.95867936969028
H         4.37383776842410    1.09925576324909    0.10723236105184
C         3.09539002137174   -0.45249537287743   -0.65972267945592
H         3.83515815392760   -0.65584678615390   -1.43528399532533
H         3.26968957338591   -1.15748852742941    0.15516115123301
C         1.70281368949563   -0.67003404900945   -1.23869667523394
H         0.93595024396202   -0.61450312838258   -0.47030419263821
H         1.64277682938565   -1.65286971850395   -1.69742028963812
H         1.48501114258073    0.07481028957930   -2.00056097543857
S        -1.21048393925614    6.44052720968573   -1.51804676473963
S         0.28245242976460    8.22728214549145    0.11457796196564
N        -1.64733942961315    9.07975564073827   -1.52995256088672
C        -0.96634682621770    8.07454376880159   -1.05282994424821
C        -2.66940863981710    8.87248291972799   -2.53712434171915
H        -3.11190425334108    7.88541351644065   -2.38267858493203
H        -3.44008584882906    9.63281379052610   -2.40096309769111
C        -2.08333078831336    8.95880222949340   -3.94947364838093
H        -1.62842815315174    9.94164239481095   -4.08871622510164
H        -1.30009534731710    8.20564565817706   -4.05594246699663
C        -3.14736329448215    8.73815390729154   -5.02511011143284
H        -2.69446467645266    8.95470430271884   -5.99365983213262
H        -3.96612795947483    9.44498201895531   -4.87858735979028
C        -3.69316557558174    7.31556517503352   -5.04420448161652
H        -4.27313676340712    7.09627021017040   -4.15138368936030
H        -4.34337399600911    7.18077415929186   -5.90390077138139
H        -2.88124546223292    6.59555730260933   -5.11550893991409
C        -1.40379023253379   10.43002238590585   -1.06105084629394
H        -0.34744373370992   10.51941666028387   -0.79618668110430
H        -1.62531510187764   11.11882968653586   -1.87776838045625
C        -2.27118273297005   10.75611608081744    0.15850112335996
H        -2.03848939105405   10.05058805731470    0.95860032803696
H        -3.32285183006481   10.63084473226997   -0.10734536358614
C        -2.04439083918274   12.18259983720487    0.65955222504056
H        -2.78416163084602   12.38595953391567    1.43511250800776
H        -2.21871842694763   12.88755874795977   -0.15534968734969
C        -0.65182069653036   12.40021924632690    1.23851981212640
H         0.11502671841615   12.34471246280918    0.47011321556468
H        -0.59183515847422   13.38307655483419    1.69720779295132
H        -0.43395864937520   11.65542269016849    2.00042367816754

