94
CSD_code = IXANIF | q = 0 | S = 0 | Stoichiometry = C33H51FN8Zr | MND = 6
Zr       10.23122583646691   -2.28267723442996   21.37642482449473
N         8.63028535432668   -0.73340205646090   22.35149808901602
N         8.66517729344972    0.57605236734656   22.05127606070998
N         9.99660822690130   -0.55932067944132   19.67683420776386
N         9.80728421473086    0.73340909233124   19.98682511836840
N        11.43220349852941   -0.54723793128828   22.16549988732972
N        11.71978408365865   -3.14767021590233   20.21656781590107
N        10.01447481593658   -3.47915369418999   23.06881667048683
N         8.55563366000236   -2.98640149004551   20.31860851793049
F        16.59277402092166   -2.13753410029462   23.39488453265806
C         7.53044903900219    1.20526657296238   22.45239805112158
C         6.74219006673449    0.24312482238809   23.04223828410495
H         5.77271282862555    0.38340326111775   23.47486387040563
C         7.46963033643460   -0.95649721663766   22.94983226823600
C         7.24390362330026    2.64603702122736   22.22793929634609
H         8.06565329031760    3.27834714570161   22.56075699943814
H         6.35159856740128    2.92171547528455   22.78306013113556
H         7.06038572762119    2.84378494697940   21.17105688588843
C         7.07059326835627   -2.31552404615142   23.39178980623397
H         6.06226802375092   -2.54036570056425   23.04941047791273
H         7.08055648280417   -2.38165267723377   24.47973787367804
H         7.78627626047918   -3.02720272561380   22.96848314041748
C         9.68289886052930    1.49884508209779   18.87207527810405
C         9.78790808698313    0.63864047719188   17.80179348814764
H         9.73524502672097    0.89580027569036   16.76353896635481
C         9.98049709789478   -0.64044473645860   18.35432576498512
C         9.49524256295074    2.97311058777598   18.89144621593110
H         8.55973087900664    3.24966854458661   19.37746324877707
H         9.46985297259658    3.34130928721656   17.86971112014901
H        10.31436780578227    3.46630213399971   19.41459187461108
C        10.14962078383236   -1.93338257091415   17.64466109371705
H        10.35270506130175   -2.70806134108074   18.38979722849308
H        10.97126416442672   -1.86806229693246   16.93272509734485
H         9.24391400307028   -2.17792555755306   17.09084513354055
C         9.78814835631730    1.16027370864693   21.36587086213775
H         9.64769875977254    2.24687975999492   21.37151378448382
C        11.15724171939132    0.86336067935158   22.04982617745348
H        11.88858100818196    1.37827428523851   21.38877666464158
C        11.16635079622115    1.57043391003986   23.39627017153226
C        11.81141760370958    2.70984913843596   23.63059449402925
H        12.37141875433723    3.22900072846019   22.86431874353729
C        11.80254260191306    3.32094195994743   25.00380133712085
H        11.40269493960920    4.33958784941571   24.95079354386137
H        12.82542366345515    3.39879098244686   25.38166483186121
C        10.94511293921746    2.47257744226283   25.94011561704152
H        10.88541312441497    2.90411098477095   26.94033367384725
C         9.63758958517049    2.14206176147617   25.20560689668697
H         9.26058942105424    2.91205288573875   24.53413689466488
H         8.83494397633399    1.81707632792969   25.86083392136381
C        10.41585842802132    0.98021016258199   24.55474224797772
H         9.89357811400854    0.05916351047615   24.30598666503325
C        11.32036819390180    0.97435792380109   25.82075784803097
C        10.72449615239279    0.13567532916011   26.94853880384021
H        10.82265722729354   -0.92178143484628   26.71285000985675
H         9.67345092145302    0.35015183097643   27.11676538677757
H        11.26219246254933    0.33044482292930   27.87491407045942
C        12.78486287448913    0.59233580654000   25.67642377513191
H        13.32005605064125    0.83386235090584   26.59326200782655
H        13.26838802670749    1.09764908588059   24.84842407921006
H        12.86970694314418   -0.47767965928054   25.49785284635501
C        12.72480255067913   -0.87152009864399   22.45253376528604
C        13.01820182782925   -2.22489629593478   22.75721412281497
H        12.20067036464419   -2.94037654486013   22.71798175573011
C        14.29267564937113   -2.64314576387476   23.06678000230056
H        14.49700465676174   -3.67793197047425   23.30039642629158
C        15.32962336077381   -1.72374621262972   23.08395472839490
C        15.09806592107320   -0.39660426259069   22.79313234344043
H        15.91721829446645    0.30685114818449   22.80883156915452
C        13.81735794577304    0.02524034279112   22.49070339400040
H        13.68477660279809    1.07381608242919   22.27482861290280
C        12.18578279039372   -4.50687851081728   20.38206512473769
H        12.33567868052775   -5.00301698559483   19.40111170623215
H        11.46618613536181   -5.09658096623590   20.95639112070923
H        13.16290396539006   -4.55203250826693   20.90360078822499
C        12.77157619088575   -2.37528954257884   19.58825043618830
H        13.72468215220614   -2.42887407150667   20.14960524718252
H        12.48792269145495   -1.32141137195803   19.50642732023980
H        12.99168135866176   -2.75306017182479   18.56943796431159
C         8.49854761180408   -4.32292676433377   19.77222019916725
H         7.68827572156214   -4.92766370082418   20.23357837012002
H         9.44790141214421   -4.84132307291187   19.92002951359754
H         8.28496277940174   -4.31205575823293   18.68281884042171
C         7.36815483356865   -2.28338586113814   19.90025673250206
H         7.24920548891545   -2.29334820052695   18.79502863125650
H         7.37866701871388   -1.23604031424679   20.21500316809786
H         6.44449632222551   -2.74651303998594   20.30732475022484
C         9.74101427489736   -4.89623406061332   23.13758283033709
H        10.63775857395845   -5.48319081795996   23.42999863904882
H         9.38198430701007   -5.26732967790873   22.17600231079556
H         8.96579264665879   -5.12316913046715   23.89786640976888
C        10.33474968112771   -3.00276382277464   24.39765386935146
H         9.47503592505984   -3.11365494937468   25.09078990879028
H        10.62242334448832   -1.94966528297238   24.36264101551868
H        11.17052045115199   -3.57144079744223   24.85460570847533

