66
CSD_code = IXANUR | q = 0 | S = 0 | Stoichiometry = C22H31ClN8O3Ru | MND = 6
Ru        0.89600578522210    1.31266313828698    5.57602263687548
N         1.63317104238526    0.45357550527123    3.90936422858601
O        -0.89284746552092    4.91610778593541    5.05380690163308
C         1.97252379149558   -1.30306501381366    2.57378926399701
H         1.87222615690218   -2.31783092361964    2.24769023192278
Cl        2.84955912643901    2.57106846755242    5.81196049378045
O        -1.61949006083151    3.86803015650799    7.61497637360938
C         2.65292376482896   -0.23917101634118    2.04426673052432
H         3.24710824856248   -0.22721221416251    1.15466796611850
N         1.35053916164171   -0.84917170251039    3.69830077267312
O         1.92130007020866    3.43973928956971    8.78776283131568
H         2.12121644459646    3.37125319186564    7.83768987958767
N         1.48431363766101   -1.50649611076895    5.93606455500538
C         2.41518505512079    0.83489528659789    2.91513596710362
H         2.79962968665681    1.83500985024081    2.87414971757587
N         1.79573523403327   -0.27827832528076    6.41667547490321
C         0.68177636255494   -1.59493722360062    4.74015533891485
H         0.59443453577495   -2.64585150738913    4.43727312971881
N        -0.62667442482539   -1.05192291684279    4.96419920843370
C         2.83525703838859   -0.44164229099464    7.21445275971404
H         3.29862407728508    0.39815951187478    7.69473200323867
N        -0.74487489235540    0.24412020982626    5.31073221497934
C         3.21225367602461   -1.79393022950137    7.25848933530550
H         4.01139508187497   -2.21882746172672    7.82882541607464
N         0.09135889663454    2.96154947809651    4.67855047179364
C         2.35018641766710   -2.44551648271125    6.42176551784958
H         2.26276611083530   -3.47776953100928    6.15101338877618
N        -0.02228258776664    2.24701633275882    7.22521079341798
C        -2.04256721457557    0.50277337388102    5.35110959708886
H        -2.40631775119935    1.47629538777370    5.61893808874283
C        -2.77771951714484   -0.64722166656842    5.02182240986189
H        -3.84296923919581   -0.73706514116712    4.97855649309284
C        -1.85159924202322   -1.62325427238130    4.77290562216494
H        -1.95624559824393   -2.65072207845038    4.49217713502097
C        -0.53937121895714    3.71922606608390    5.49728846120897
C        -0.34621745233172    5.05685325421454    3.74346431288333
H         0.39534930456116    5.85972879176038    3.76754598596885
H        -1.15374369221127    5.33483369582856    3.06355568577042
C         0.28455054332866    3.68103735728209    3.42761610811594
H         1.36270370101505    3.77921025777771    3.25075814319270
C        -0.33663089531665    2.92753169763775    2.23495109071333
H         0.12366560684404    1.93272451256542    2.22512389638014
C        -1.84508563078342    2.74194662635178    2.38192354626280
H        -2.21630176076927    2.09213797268300    1.59225080580669
H        -2.37349018900018    3.68947687140377    2.31187100781125
H        -2.07836447099005    2.28369159194764    3.34057370418618
C         0.00867886071257    3.63090458130034    0.92520824573923
H        -0.38686050578462    3.06851648621776    0.08280758608451
H         1.08629503654924    3.71468347064334    0.80632751091494
H        -0.41699931080539    4.63102691070628    0.89754471542155
C        -0.79668847904030    3.28497383337327    6.91678676702638
C        -0.00142968576969    1.91333298102458    8.64141140964733
H        -0.70660384533644    2.59775040096721    9.13285011364376
C         1.40424796584329    2.21491514877260    9.21632891887678
H         1.33617762592690    2.28342633547343   10.30489894881579
H         2.08824914770266    1.39676150825081    8.95861820264743
C        -0.46609377432567    0.46337874832076    8.88289155746658
H        -0.02752209418107   -0.16025535592357    8.09185869988055
C        -0.03366739430503   -0.09470594689488   10.23726208582664
H        -0.47857770587855   -1.07750957294447   10.38592864670204
H        -0.37278715952931    0.55672272711769   11.03859732777553
H         1.04545173184970   -0.19704014408840   10.30534516999290
C        -1.98919663229299    0.39212566586170    8.77809627108173
H        -2.32984998821124   -0.64223560470362    8.74878521244891
H        -2.33531411501078    0.89853583089916    7.88269742874911
H        -2.44197493263807    0.88192244285835    9.63679948354522

