94
CSD_code = IXAREF | q = 0 | S = 0 | Stoichiometry = C39H49FeN3O2 | MND = 5
Fe       13.23008772750119    3.84995521360398   17.41291821272352
N        13.92101578120180    3.31492238440075   15.70543103913517
N        12.30469967758519    5.32060492509701   16.67063101284503
N        12.62158609599459    4.25195593570468   19.18744556810348
O        11.66144679777195    2.58736400975895   17.17694152884668
O        14.91781755701674    4.91913853104651   17.74821830889832
C        10.85968841268351    2.08557950896322   18.08077713768250
C        11.32678658802275    1.17556000563978   19.06424253971018
C        10.44040756660428    0.61715643479063   19.96488684463381
H        10.79835416681766   -0.08737446769660   20.70199483912380
C         9.09499795487587    0.93939816975140   19.94200014911967
H         8.41765533267379    0.49795312155985   20.65872075110118
C         8.62339370846952    1.81872303324963   18.98404957566312
H         7.56852135669283    2.05211524134023   18.95687997709571
C         9.47581395833310    2.39889882647299   18.06499813758212
C         8.96740303630437    3.33107015256593   16.99115422098206
H         9.83776550111065    3.87657771887319   16.61095086399033
C         8.38497820448429    2.51654907139239   15.83279590222930
H         9.14194861062138    1.84349669777365   15.43763980778662
H         8.04833908296353    3.17385778118511   15.03246948916157
H         7.53983294509908    1.92184670561542   16.17414715449227
C         7.94097926729739    4.34306328578843   17.50008082651188
H         7.74862802182249    5.09356527142765   16.73464327350080
H         8.30145914753696    4.84852726294788   18.39416128106715
H         6.99759665421107    3.85769819739092   17.73845730123309
C        12.78425827519426    0.77532002254876   19.04692452718593
H        13.33506233336024    1.58354396764250   18.53170264032356
C        13.39252017053610    0.59994713963126   20.43668622202058
H        13.16808451367322    1.45681315636290   21.06778196964649
H        14.47379341356212    0.49754358727869   20.36059233954182
H        13.00653000546851   -0.29513579056540   20.91919479825162
C        12.94233802458817   -0.51443094122570   18.23458111421370
H        13.99260612996317   -0.78224259251136   18.12680888556779
H        12.50549496265157   -0.39473845324171   17.24539992978935
H        12.42494496391999   -1.33246869535966   18.73258117532536
C        16.06613811995651    4.87208948090130   17.12314538357817
C        16.89382294802198    3.72086495227803   17.17642487162295
C        18.12876395556534    3.72919222880929   16.55710863371436
H        18.76249409240523    2.85569515539586   16.61398250139575
C        18.57675143639382    4.83967952932104   15.86382811500811
H        19.54279467802031    4.82565568033307   15.38016916602901
C        17.78399094930391    5.97192695687333   15.80897514050216
H        18.14638056165479    6.84374172039688   15.28316153462499
C        16.54312146690232    6.00522820001408   16.41473192141827
C        15.68270912310277    7.24609346645559   16.39470654559166
H        14.66440976684965    6.92614717766279   16.64090382659749
C        16.14438119500559    8.21190986796160   17.48956374082224
H        16.09598682266446    7.72067995787165   18.45831347481500
H        15.51041220291576    9.09700561954609   17.51328268065186
H        17.17195263693529    8.52356132495509   17.31223588396851
C        15.65867521356621    7.94902908861229   15.03768661762001
H        16.61277021151366    8.42620247927081   14.82663381194835
H        14.88934151932517    8.71987906091231   15.03275094846160
H        15.44375462156896    7.24355441651405   14.23697391936932
C        16.43087875617281    2.53312164906016   17.98851295798337
H        15.32985734384314    2.60109223170876   18.06147947327180
C        16.78077821705014    1.18425464051544   17.36379524174722
H        16.48693353182046    1.15532543097534   16.31699993163151
H        16.26562562211794    0.38360477265904   17.89198501941819
H        17.84936457334198    0.99197004882280   17.42822354038267
C        17.01814030101880    2.63015851891103   19.40063016472979
H        18.10268831428770    2.54736486353344   19.35814283988335
H        16.63392023956133    1.83594851715148   20.03935070093425
H        16.77301525701943    3.59160487141386   19.84699168898126
C        14.47263688378796    4.14903005948954   14.81736402886478
H        14.37104137618966    5.20078519886821   15.02851579649221
C        15.15304434646398    3.71885850437169   13.69527707440727
H        15.59916014371273    4.44120326272706   13.03053909254121
C        15.25340828909973    2.35861624811744   13.44474584739143
H        15.78225337686682    1.98832482346254   12.58034650787488
C        14.64193244484737    1.48986145742354   14.33740635983097
H        14.66806862797336    0.42239721876088   14.18165588015215
C        13.99820921424412    2.00688726604426   15.44472730267906
H        13.49813091602723    1.36282035099423   16.15125461533159
C        13.47491850136678    4.06577355518179   20.19828031945750
H        14.49778779386730    3.87481516087294   19.91298025054572
C        13.10493071276668    4.13646688692440   21.52725862502740
H        13.84231735667161    3.97734090648805   22.29887926828184
C        11.78147323932175    4.40461478201068   21.84655300795384
H        11.45349691036844    4.44692824232520   22.87350325800897
C        10.89682964575390    4.62653256684386   20.80192962412983
H         9.85884226009792    4.84982504287215   20.99003391090318
C        11.35768178611288    4.55528237491165   19.50209113423282
H        10.69320738370468    4.73392764413377   18.67289808046900
C        12.32232414234439    6.52611491173176   17.25614655637453
H        12.90625268193976    6.59706263115900   18.16112817194994
C        11.66225748254160    7.62639567801386   16.74519590057336
H        11.72251494065665    8.57312400175376   17.25876840887143
C        10.93032692972178    7.49503664079257   15.57290591443554
H        10.40003115994407    8.33362037720132   15.14959529272983
C        10.90392690177702    6.24782281874647   14.96382131548514
H        10.34737813476269    6.08597404779081   14.05401996671170
C        11.60055061542508    5.20180101170553   15.53637438141578
H        11.59337617715581    4.21812000024275   15.09222448509155

