95
CSD_code = IXARIJ | q = 0 | S = 0 | Stoichiometry = C38H52FeN2O2 | MND = 4
Fe        7.91520326625570   13.03629764048624    3.53905196797370
N         7.70843949339883   11.59951167673409    5.77700951570046
N         9.51014305894867   14.02951165805586    5.43298852787983
O         8.83012173963037   11.62427877733599    2.99607771823472
O         6.94632010847614   14.46118859078833    3.93596831316443
C         9.04852704997944   11.08082213230846    1.80005445344573
C        10.38336260204264   11.07369373175138    1.29794328017776
C        10.62988088236506   10.53862806839266    0.04684747569266
H        11.62622434713972   10.53930150264224   -0.36097707214359
C         9.61697384434136    9.99201005998708   -0.71491545682175
H         9.82841397176844    9.58726391515247   -1.69349096959440
C         8.33430278366887    9.95505202493065   -0.21057431728438
H         7.57132056090144    9.50996179049542   -0.82529725851357
C         8.01226325568533   10.47745986802403    1.03374018140382
C         6.55170999823998   10.41580089930055    1.49519655563877
C         5.91723770751709   11.80395314431374    1.32679945180322
H         6.36438363706982   12.53241455526633    2.00870760260127
H         4.85040883186884   11.76002589375325    1.53430859768381
H         6.05686459495906   12.16045423625094    0.30857468165315
C         6.43157574905986    9.94820324564672    2.95106114033706
H         6.94247052367395    8.99565067515047    3.07864167518975
H         5.38374144301407    9.81279139760997    3.21266813926239
H         6.85624823025769   10.67322555094722    3.64159439295033
C         5.71489226226364    9.43331178370672    0.65800285489351
H         5.57803193578851    9.78432613128321   -0.36160165293956
H         4.72646391000448    9.34029188706922    1.10441907887397
H         6.17038138918578    8.44601231842928    0.63994023334946
C        11.54103519855444   11.61654535762262    2.13558070568905
C        11.62645929029322   10.79282782107946    3.42836243394304
H        10.68662517916248   10.84154574765172    3.96860061982836
H        12.42874636170303   11.16339718548548    4.06512136220388
H        11.83201502321331    9.75082683229556    3.18814456452295
C        11.33910012770569   13.10716914844684    2.44299224599719
H        10.42498151001262   13.28256494909247    3.00949423050139
H        11.28731151329385   13.66788623386889    1.51202462210972
H        12.17740835032100   13.48608919556972    3.02552228909811
C        12.90056804969265   11.49122341705626    1.43380187284357
H        13.67506517731253   11.87639760539357    2.09523621199191
H        12.92894835129586   12.07196432263242    0.51483234600317
H        13.14014915863002   10.45428817868271    1.21048018835651
C         6.09050993932860   15.19767537343727    3.22932220716560
C         6.50148595060970   16.00434684935668    2.13167300954429
C         5.53167828050188   16.71571437812724    1.43980473801392
H         5.80424998459372   17.31831142862323    0.59083855621410
C         4.19883530631292   16.67468916488023    1.78999092267706
H         3.46930410657858   17.23015791515632    1.21954479362535
C         3.80732191512377   15.92914053558554    2.88366294541869
H         2.76388889971316   15.92868026072805    3.14874471400481
C         4.71971080845709   15.19884509264993    3.62293752552718
C         4.25708068997336   14.43300128754097    4.86227920285454
C         4.99911378091458   14.99710687271981    6.08212612713697
H         4.74665780278495   16.04814925179967    6.21373289449054
H         6.07190690594498   14.91677900281167    5.94012699189627
H         4.71337018223755   14.45898174809106    6.98500283236244
C         4.52195613639653   12.92917215603762    4.70343845470853
H         5.58324249222503   12.71794466882473    4.57560934045095
H         3.98264039501957   12.55277534380188    3.83673026608220
H         4.17291752015653   12.39272420920444    5.58436471837479
C         2.75535837073886   14.59030032238438    5.13914802753000
H         2.50488872281866   14.04076903018268    6.04520411211943
H         2.15637461483176   14.18390168942565    4.32758676041626
H         2.48591714576178   15.63191094286766    5.29713642709379
C         7.95379575575730   16.09224381064079    1.64881572923422
C         8.93281615735150   16.28628694556068    2.81347005814336
H         8.63615428883989   17.14754545176887    3.40915829533583
H         9.93598595907181   16.46399953113551    2.43019302440449
H         8.97204415205710   15.40843656169816    3.45436314856208
C         8.18041481306297   17.27683816976165    0.69378631700162
H         7.84657874898905   18.21050826801301    1.14031004206347
H         7.67451793375464   17.13275664709652   -0.25744771988245
H         9.24503697862814   17.36479251157315    0.48460004745245
C         8.29877698560613   14.81397615207223    0.87103029000255
H         9.28266859985976   14.90281632300445    0.41588649241364
H         7.56765375954813   14.64325287275195    0.08389243144982
H         8.30723386392263   13.93850452511517    1.52626714936472
C         7.38702772704847   12.22442302041055    6.90162567111057
H         6.70991873334767   13.05607654084029    6.79570559556476
C         7.86838560427660   11.85479026832660    8.14710035819150
H         7.57114287491831   12.40001084922269    9.02972237592983
C         8.73056813347884   10.77361327862631    8.23108665066817
H         9.12813168135138   10.45448196778000    9.18385837340244
C         9.06208963315229   10.10722283244818    7.06257750769680
H         9.72234540306457    9.25399090384562    7.07571253077794
C         8.52213250948415   10.55529910490147    5.86803823407796
H         8.74902486939667   10.05682318355416    4.93722460970818
C         8.97899043748982   14.97616661486050    6.19645906890581
H         8.26020730864096   15.61932922342756    5.71083269503298
C         9.30458914987726   15.15573486925635    7.53089699640232
H         8.83820160096365   15.94170408046404    8.10447182595892
C        10.24129119087465   14.31117513494765    8.10442282708550
H        10.52438354503759   14.41908244399837    9.14174008379074
C        10.81117614935513   13.32923236630357    7.31063982250251
H        11.55194644874146   12.65215938936810    7.70750058793605
C        10.41371058311404   13.23249894923309    5.98689163420940
H        10.83822800008942   12.48588053303483    5.33612887409619

