184
CSD_code = IXEBOD | q = 0 | S = 0 | Stoichiometry = C74H98Cl2O7P2Pd | MND = 4
Pd       21.20661026347811   10.03885727829300   23.27392959140604
P        22.61797893035748    8.48888904536460   24.11146412162669
P        19.04706665993239    8.22246131992450   23.98268877042902
Cl       22.77957671799259   10.52667096403727   21.78984530040004
Cl       20.06422810349939   11.91687381437892   22.72515771551265
O        22.14984723201215    7.22877317666125   25.01660095569436
O        23.77193673606634    9.19604518633120   24.99540223091579
O        19.95455008967905    7.29870088689678   23.04596015969654
O        18.63556095015061    7.28508916454664   25.19921191301446
O        23.51677235391144    7.75980405737281   22.97887687463390
O        17.71800957681193    8.54889459019114   23.19471831750691
O        19.73323768447684    9.38167289038901   24.56424192055462
C        18.98840355348403    5.95145939893529   25.32127813177368
C        19.84845446633259    5.56792167305121   26.34322370575044
C        18.41415999481924    5.63344864428195   22.06758114087497
C        18.44480955892033    5.01492824988766   24.45572173905570
C        17.24483561175033    9.87828927001548   22.99070632517710
C        24.58122220628680    5.30330688981566   27.03672500047897
H        25.57419268017161    4.89797997925398   26.93114951284342
C        24.05021203758858    5.97695372270403   25.94071196558677
C        22.01084379631423    6.28452971102144   27.19115926455597
C        22.77262589516923    6.52291218213988   26.04150969350703
C        20.53742343476492    6.58941860014374   27.21255168422013
H        20.32416958797140    7.58324565026175   26.82521532281188
H        20.15919944737082    6.52695568786719   28.23531825399416
C        23.39526757884034    6.42114431241412   22.70153112199300
C        19.54736184291016    6.44235882920940   22.00593312330180
C        20.36123674969995    6.40033953251430   20.87096988796117
C        22.60307986358903    4.64865303949151   21.33169220172081
H        22.00752962661478    4.32471850106080   20.49288129678881
C        23.93168063772726   10.59249045189461   24.81849862878768
C        22.61212035737987    6.00084294522962   21.63549321929560
C        21.74640164347001    6.98075768301042   20.87762339659139
H        21.78845657319206    7.96600589409339   21.35525844551853
H        22.11549198996836    7.09051374686439   19.85613201260882
C        22.58276716845905    5.61725078784747   28.26027354352775
H        21.97549410600217    5.46288863204766   29.13972507050675
C        23.88709939838693    5.13838049847570   28.22330730058883
C        24.08848441922113    5.51222746406970   23.49116873454972
C        16.62703131291990   10.56386036345515   24.04400037807660
C        17.58196241164497    5.47203234911404   23.31352842937640
H        16.80569560461483    4.72862166755229   23.12291896894262
H        17.08625472548666    6.41012602427281   23.56600861980203
C        22.90762719377014   11.46876208839272   25.24412584492225
C        18.06170710363000    4.88954185113717   20.94892109495697
H        17.17760983271554    4.27476873079906   21.01928295605796
C        24.03367573897142    4.16300566609755   23.17336367684545
H        24.57461847215771    3.47508767783386   23.80273443937635
C        18.78342915967055    4.92043255205278   19.76428516298620
C        24.86580307382046    6.02520154010816   24.67323676233890
H        25.76420681998181    5.42084484228569   24.81081088623849
H        25.17739539463349    7.05201085087589   24.47398238267861
C        17.39600534756397   10.46155656445574   21.72158835038493
C        16.43590730448118   11.93237422862282   23.87447980653058
H        16.06141158522550   12.52083534945491   24.69431269229461
C        16.72987877646983   12.58181916620737   22.69311288316208
C        19.55546227924243    3.24523794874874   25.67911793829806
C        20.10253163286229    4.21612606281940   26.51008153616899
H        20.76516291918960    3.92875436543227   27.31108528156592
C        19.95235380879230    5.66455029537598   19.76630055475571
H        20.58808281724754    5.68732834965142   18.89622995228305
C        23.83226925298968   13.15132852941947   23.74866873245417
C        18.74181601491616    3.67070131425092   24.63866974299927
H        18.31353056201710    2.96519897810185   23.94566868332491
C        22.87243854497928   12.73262855579820   24.65576984520803
H        22.07223980031273   13.41175970709221   24.90194306615972
C        25.04409627266798   11.07896369804796   24.11926631460355
C        15.62094681218428    8.48363611407310   25.10295313695622
H        16.45388561071157    7.79316017507405   25.11726122640251
H        15.09441492201326    8.39481931760823   24.15453360820635
H        14.94228984718085    8.18316897273433   25.89941282310549
C        17.83332992314935    9.69767772929946   20.47162924216506
C        24.95479573124745   12.36150035779861   23.58729738579968
H        25.75812604539043   12.73857191451062   22.97859901911730
C        16.08662521219973    9.92955946915381   25.32960100530471
C        23.31066999982275    3.71170157194566   22.07692997774969
C        17.12531658697570   11.81777272598777   21.61049995224603
H        17.28109750181740   12.32077359376699   20.67368554745981
C        26.34328396834196   10.29537255635851   23.94554706427040
C        26.24856632230929    9.38117583546471   22.72130592368490
H        26.02038911482149    9.97331233522044   21.83839853845722
H        25.45486478783399    8.65489223925919   22.83180940055616
H        27.19064466793812    8.85748965109683   22.56564199045934
C        17.07328900025641    8.36720919297565   20.36383472482512
H        17.41913535995428    7.81122152214907   19.49419262231578
H        16.00850135168060    8.56308372073606   20.24767321223103
H        17.20862864529215    7.73825032366041   21.23354552760517
C        17.51471573803569   10.46689710315417   19.17938762818026
H        18.14081187792886   11.34766427862696   19.07259008727143
H        16.46813847390854   10.76080053462139   19.14220533873710
H        17.71590401818679    9.81818589103612   18.32882352429032
C        17.14134915015221    9.98361877633936   26.43946342472682
H        16.73599307036792    9.56946444179813   27.36117532787759
H        17.44198590599704   11.01383236107766   26.61644166541925
H        18.02424893870328    9.41702480568086   26.16357554753101
C        18.30084044411382    4.12586643413855   18.56188378841837
C        27.53737886037010   11.24055277183499   23.72960572393425
H        28.46084376601925   10.67234645520595   23.82519463742668
H        27.54698007578430   12.03563973291805   24.47182626204711
H        27.52759719456620   11.68070750319695   22.73663122735495
C        23.66432480863566   14.44474212216851   23.01670210421205
H        22.84689488240616   14.33706025591957   22.30497912354038
H        24.56712847662340   14.70952911337387   22.47290872104390
H        23.40941345667768   15.25185735232310   23.70148617763369
C        16.89839426265275    4.61487151495716   18.17454096996721
H        16.19241762976038    4.48349547904096   18.98937846318595
H        16.53334525467854    4.05956690257420   17.31346696754248
H        16.92616804894141    5.67095972974973   17.91616853032373
C        19.87764078167124    1.78317756580271   25.94537150024323
C        22.83922488678305   12.09597896447475   27.59593366661606
H        22.96002911725639   13.13409999125019   27.29743233698348
H        23.82840639066082   11.66985863712492   27.75127001767397
H        22.29519630700754   12.06499726586548   28.53809837374921
C        22.07377559013293   11.29929531115953   26.52144525165399
C        20.66258065325123   11.88600602772329   26.36479557659314
H        20.03540613793438   11.55954035993479   27.19225785670853
H        20.20700595448840   11.54623092348616   25.43376110097933
H        20.67368196432064   12.97233498863862   26.36670482802180
C        24.46041627928267    4.41861070863780   29.43351463481169
C        21.78370890711043    1.78923010198951   21.67795634300307
H        21.71912011683984    0.72784710887011   21.44716490830364
H        21.18837662877814    2.33520789662299   20.95130958740496
H        21.34963036006799    1.96021427693032   22.66047155942817
C        14.84624078559227   10.70484902020254   25.81652305049882
H        14.13784668141622   10.84980835224797   25.00426483481520
H        15.10587929917035   11.67251329305515   26.23489126518288
H        14.35421606718777   10.13923726748594   26.60526001054526
C        23.24847138320341    2.24917735079741   21.66199045354852
C        24.40377425633516    5.35628288669066   30.64711992572763
H        24.82599906390629    4.86411593253531   31.52051183052467
H        23.38279419412615    5.64440021847072   30.88010997805844
H        24.97605972956711    6.25971215673736   30.44903216706204
C        19.21652681604152    4.28792916394191   17.34564116643261
H        20.21449591413637    3.90726363892376   17.55020915303941
H        19.28648744587031    5.33027413588968   17.04468588402932
H        18.80986155052728    3.72381494320288   16.50906713220179
C        26.66048513325480    9.49917771236047   25.22019625554222
H        25.84980401695696    8.84091489488226   25.50783639122922
H        26.84398143973804   10.18599040465405   26.04509939484129
H        27.55519141788752    8.89732110683535   25.06865856181900
C        18.24949777678612    2.63633123360423   18.93014705545491
H        17.55940999091464    2.45264698329555   19.74859130115498
H        19.23502754026427    2.28639178480149   19.23033383346501
H        17.92394907117452    2.05125708509486   18.07303733538237
C        16.61972073835771   14.06822924082564   22.56787279628383
H        16.06436902931326   14.49565592854915   23.39885420449336
H        16.13489719854750   14.34619715251235   21.63435679821987
H        17.62361153195458   14.49080630416084   22.56518815185130
C        19.35109158461039    9.48466354633880   20.49944411348539
H        19.86098567554945   10.44576120839702   20.41175400003126
H        19.65927690384039    8.84802754525269   19.67187473867767
H        19.66575070664187    9.02252636798060   21.43847959502877
C        25.91590812873789    3.99053718760209   29.22924477455478
H        26.54849990986398    4.84981767026590   29.02058182694676
H        26.00442403796713    3.27458544910355   28.41556766500836
H        26.28361888615889    3.51349427747190   30.13529983663816
C        24.05428943662911    1.33669962989447   22.59007663778763
H        25.10643748085090    1.61054623438007   22.58550469773021
H        23.97385828690703    0.30728514590061   22.24677083304308
H        23.67966685814893    1.38078302395890   23.60973345270913
C        23.62253632121994    3.16091120891395   29.70640458979725
H        23.63681733877433    2.50381903120404   28.83889879499018
H        22.58935637218042    3.41381662765669   29.92868315441687
H        24.02901191239072    2.61713170917558   30.55621793758835
C        19.22956872015143    0.84189047379201   24.92696841599557
H        19.49685418813866   -0.18619920741246   25.16195922623576
H        19.57275968721652    1.05579038321429   23.91788877981793
H        18.14563042197051    0.92168936200678   24.95886404783346
C        23.82032006282764    2.11003437529612   20.24409637637205
H        24.85330906011263    2.44952800394654   20.22145935484987
H        23.25368555752619    2.70019147669352   19.52972548471807
H        23.79094087292814    1.06926421578379   19.92847632010062
C        21.93109836750342    9.86423578695288   27.02311201102538
H        21.39779796206124    9.86630602576855   27.97380050841913
H        22.89461484628184    9.38635597144350   27.18251322489529
H        21.34893114004216    9.28953780514336   26.30869241003939
C        21.39999803558912    1.59266958121495   25.89018775050767
H        21.89709966048923    2.14085057831549   26.68559815818587
H        21.78790044531042    1.95512625562085   24.94090070288103
H        21.65059419897073    0.53883527656075   25.99171887710690
C        19.35883588185670    1.40752766197889   27.34063128037748
H        18.28233116114978    1.55421969932739   27.39362721959853
H        19.82403130126126    2.01526718993311   28.11127309526142
H        19.57629140698182    0.36279835241814   27.55138388533570

