91
CSD_code = IXEFOH | q = 1 | S = 0 | Stoichiometry = C42H40F3NO2P2Rh(1+) | MND = 6
Rh        1.52113014913929   11.13541787137707    4.95727202681715
P         3.15323812343815   11.51744208926273    3.36843768900656
P        -0.29616082177144   11.66182123266886    3.63279999261462
F         1.45754983343134    6.28753937501599    4.34720520507548
F        -0.47141520609757    6.80363227987127    3.53864072544978
F        -0.32645832768069    5.91325463744535    5.49376404564914
O         1.15184114594461    8.94388657879090    4.56115033877535
O         0.26228199862826   10.80560454495535    6.60744095702619
N         3.02196013602030   10.33722242680641    6.38792136842088
H         3.97916497016456   10.67636093041019    6.29094807402563
H         3.03351640668962    9.32440137786327    6.26745324477763
H         2.70863207581822   10.53148483168048    7.33853823675089
C         1.72528252953493   13.04705951754290    5.72975921872253
H         2.16694695058235   12.94387492973369    6.72293865039696
H         0.73402131050520   13.48219620903481    5.85329625122911
H         2.33346176987159   13.73350248964034    5.14298714340653
C         0.39337242779761    8.21136064737167    5.24641373776745
C        -0.29031988697159    8.49621256839136    6.41072507887123
H        -0.86530895990761    7.71437846385814    6.87594772059098
C        -0.28743407536691    9.76518597385109    7.03192971906113
C         0.25442258375621    6.78782393938401    4.66892775114953
C        -1.01861658181995    9.86291608312800    8.34601375366380
H        -0.93937731621077   10.87046524394698    8.74427678083884
H        -0.60161038429396    9.15288106445422    9.05667407488140
H        -2.06626755794156    9.61279116721970    8.19932260478697
C         4.85805126840309   11.53705399681770    4.04537192290465
C         5.14442181543750   12.29499469420110    5.18302729553795
H         4.35493915020276   12.84834469543025    5.67055599291675
C         6.43614189906129   12.36680567255027    5.67471025068088
H         6.64428093707731   12.96268535909833    6.55076227277061
C         7.46033717761270   11.68267466366860    5.03958688746038
H         8.46736656705659   11.73879479604681    5.42214843026466
C         7.18569032485720   10.93479980221274    3.90723222349696
H         7.98014224127002   10.40767207277001    3.40185017131667
C         5.89555856577286   10.86230821873509    3.40906446253268
H         5.70221827301271   10.28214554138296    2.51992279022455
C         3.13298709959063   13.06918559638001    2.40959853628031
C         4.05254275651259   14.09189224986733    2.61845116393479
H         4.83264542884735   13.98547679177281    3.35694167816092
C         3.97830058771168   15.25543638269649    1.87091635010675
H         4.69689355855191   16.04270324504650    2.04076199562196
C         2.99438740276640   15.41014485716350    0.90918950908361
H         2.94464138465849   16.31697071317275    0.32670545986053
C         2.07407662029251   14.39577007044407    0.69687711594440
H         1.30304398819813   14.50746128291747   -0.05017672258411
C         2.13866317961151   13.23688133589484    1.44673758157546
H         1.41390897274955   12.45140605422028    1.29251475646758
C         3.29387951060034   10.20417337488611    2.11288297073227
C         3.37575405369429   10.42937604173936    0.74359405079939
H         3.35253334494223   11.43346892330581    0.34813253267623
C         3.50506217805777    9.35788228928257   -0.12417133861898
H         3.56847685279660    9.54035909846290   -1.18618210909367
C         3.55689521266130    8.06224558707195    0.36137572060702
H         3.65132787977105    7.23239802787418   -0.32215761093959
C         3.49930280178825    7.83309365928809    1.72764419054959
H         3.54841396579036    6.82693677230340    2.11515167632907
C         3.37530514419148    8.89844483589068    2.59743746138115
H         3.33618775811949    8.72281916922030    3.66291375807763
C        -0.91099139411157   13.36522370489011    3.39078432960980
C        -0.04869578005640   14.45411808871919    3.35015799649537
H         1.00613621940114   14.30652654009480    3.50605714903499
C        -0.53712421934775   15.72575378783968    3.10442532039700
H         0.14470359586234   16.56205303950337    3.07717386737617
C        -1.89100757522581   15.92363628969804    2.89484647840031
H        -2.27267864678486   16.91535186973654    2.70755196549616
C        -2.75628425670789   14.84127381365246    2.92343899470580
H        -3.81210662385512   14.98698334013509    2.75308065326102
C        -2.27306277921078   13.56889535215084    3.16642325910411
H        -2.95600150987393   12.73131311340181    3.17816594044315
C        -0.34561193230876   10.95898557810519    1.94446498626547
C        -0.94872081441018   11.63745462418271    0.88710598061301
H        -1.35711092950021   12.62617038347633    1.03395028227471
C        -1.01588965038475   11.05004442095490   -0.36358133512056
H        -1.48421600811918   11.58392650242442   -1.17654941798852
C        -0.49238834181919    9.78447446357535   -0.57417533004986
H        -0.55310238826759    9.33052410509472   -1.55114021424989
C         0.10669534653879    9.10529746438464    0.47287769840150
H         0.51252142809201    8.11704392605415    0.32201480025781
C         0.18558596975722    9.69087015870607    1.72351599530591
H         0.66513466492102    9.16207933566728    2.53140169492699
C        -1.74248366574736   10.87020043713477    4.41346184632320
C        -2.23892329892366    9.64310639035670    3.99064063672724
H        -1.79410779393637    9.13354910218947    3.14846584840377
C        -3.31899094706286    9.07180015168317    4.64363877693365
H        -3.69875514145997    8.11903381732625    4.30806891389235
C        -3.90880315853242    9.71936649541826    5.71521454363530
H        -4.75415913687886    9.27393239289072    6.21719957657086
C        -3.41429471493117   10.94348055011298    6.14217459981545
H        -3.87507664971351   11.45315220746199    6.97523326396582
C        -2.33129566941662   11.51357572404352    5.50213595007458
H        -1.93582539293420   12.46288048339266    5.83751913190456

