122
CSD_code = IXEFOG | q = 1 | S = 0 | Stoichiometry = C58H56N5P2Pt(1+) | MND = 3
Pt        0.53771333616370   14.05555819803218    7.41466424881553
P         0.37323118075611   16.22302594190403    7.58019615589647
P        -0.55114281201821   12.48622901481721    8.79407976307351
N        -0.67284395242369   17.26230505747972    6.85331760600975
N         1.20007573286506   17.44484874684222    8.30981977821558
N         0.98353935780506   11.91851681937328    5.21077189715181
N         2.63417630073201   11.99993345719430    6.55594574816701
N         1.77651653704935   10.87138592265020    4.89116911565681
C        -0.35722060364986   18.67740470203656    6.98719252279035
H        -1.26644296893537   19.24838655670419    7.18609584031555
H         0.07639472045383   19.05110240930545    6.05155381096665
C         0.63971489748779   18.77955465360661    8.13937805858092
H         1.43845665224940   19.49194157987134    7.91981006119450
H         0.14876115794498   19.09981452889025    9.06607452401235
C        -1.77104353942296   16.87335856724692    6.03896407921307
C        -1.54985439807575   16.43414660347421    4.73222319092188
C        -2.64506287260983   16.11502322904151    3.94539119927385
H        -2.48237131186155   15.78036046031777    2.93162146416762
C        -3.94243432894412   16.21285297996182    4.43026316519130
C        -4.13261052353960   16.62494111018925    5.74160195543943
H        -5.13659563777886   16.69589974689240    6.13483223011850
C        -3.06373833014342   16.95880674071582    6.56003360859963
C        -0.15803129187582   16.29892920581628    4.19632792871458
H        -0.18040157395549   15.99808720878635    3.15288157654803
H         0.39301188298041   15.53951177682218    4.76026895719785
H         0.38784719928546   17.23832379585305    4.27539200659701
C        -5.11276186117591   15.88653105443727    3.55679991248248
H        -5.91141252859612   15.42241859023535    4.13146404917467
H        -4.82119243299626   15.22046079592312    2.74868824179080
H        -5.50923381419604   16.80060191611497    3.11441878882611
C        -3.30136849305838   17.39741428251986    7.97402572477372
H        -4.22318224568012   16.96689734586163    8.35659457446458
H        -3.39778448198949   18.48233037903797    8.02742311344548
H        -2.47989200859270   17.09528980289110    8.62307415202092
C         2.23357918871701   17.27225061491596    9.27074045669399
C         1.91336954022761   16.91023452512168   10.58066960587877
C         2.93769161257213   16.81256209610391   11.51029580342782
H         2.69549872534042   16.54373268117925   12.52802583824351
C         4.25776731365567   17.07145242021098   11.16946317525973
C         4.54985733643143   17.41594369901010    9.85584908591631
H         5.57446985408703   17.61277126650215    9.57422777577591
C         3.55527817118405   17.51589870056389    8.89380413398060
C         0.49308187103189   16.65132373901055   10.98108897820519
H         0.02251184320441   15.93263414689423   10.30702632380022
H        -0.08903548532443   17.57262317722900   10.95659640450297
H         0.44903439416066   16.24826972726429   11.98894381379060
C         5.34798629102148   16.99237037543690   12.19135190148123
H         5.04065506853218   16.39690114336437   13.04710588554836
H         5.59381583677779   17.99287601842578   12.54701998719893
H         6.25123763860077   16.56239706677390   11.76385801857579
C         3.89967327258463   17.87391608608735    7.48005100367457
H         4.92037474764090   17.57855318781666    7.25113371711615
H         3.82432446823880   18.95107065095340    7.32898234180259
H         3.22438214764256   17.38472361074205    6.77904471627124
C         1.48359880075699   12.64412745050022    6.22484030752880
C         2.77926383896773   10.91900551134325    5.71320349585058
C        -0.25054175451934   12.06743377719913    4.56070335406692
C        -1.22953333782365   12.91751505960209    5.06444110142686
H        -1.02997130580624   13.53928108347794    5.94217716283706
C        -2.47035417469535   12.96612071003754    4.45784578969013
H        -3.23568443392926   13.60289104786192    4.87230378667194
C        -2.73138078385088   12.19592340592273    3.33660357889500
H        -3.70258766673460   12.23624094514507    2.86815691388841
C        -1.74533235332876   11.36948912302456    2.82140131386524
H        -1.94295902874384   10.77227497020877    1.94466195904719
C        -0.50885964625241   11.29415792630385    3.43340381793572
H         0.26242333535152   10.63982890961161    3.06025639088882
C         3.89159913344291    9.98523873334154    5.69000086407036
C         5.19530693689701   10.39626907742345    5.96030882749579
H         5.40397454569551   11.43118579835987    6.18955102569900
C         6.22828579981074    9.47929012076350    5.91244915262758
H         7.23744223930702    9.80140808718233    6.11923791537859
C         5.97299325908512    8.15480130244756    5.59567325090094
H         6.78325330307621    7.44275816526468    5.56405103863175
C         4.67956667229644    7.74700738339510    5.30987036673049
H         4.48197353321633    6.71781346870424    5.05200032011055
C         3.64097961948009    8.65693384957887    5.35106983238911
H         2.62822413798488    8.35933813511189    5.12869240499833
C         3.39059902363239   12.32275591442433    7.70247613109740
C         3.66974726597593   13.65447539315762    7.99034873804001
H         3.36779791854963   14.43583942062195    7.30298635499034
C         4.37302365619188   13.96844586735349    9.14111333215450
H         4.59356502192397   15.00028058699086    9.36263842042061
C         4.78515304261631   12.96709799728370   10.00370415760663
H         5.33073556583022   13.21856582106680   10.89996753017023
C         4.50195639604937   11.64286413372759    9.71299638957782
H         4.82079004537887   10.85906219017247   10.38249829601345
C         3.80506502594224   11.31490861460124    8.56492160776209
H         3.57646087669409   10.28550189527210    8.33669404064685
C        -0.05767619469370   12.66007135977363   10.53364116964130
C        -0.79425501113175   12.18975601956352   11.61371884462624
H        -1.75374266375840   11.71948866280469   11.45507393809757
C        -0.29357386843662   12.33775295515044   12.89521818153652
H        -0.86469849717096   11.97699593471157   13.73747347634051
C         0.93784442063053   12.94049960599173   13.10221812984954
H         1.32315340803362   13.04146498092007   14.10571129714503
C         1.66879561427023   13.41927449875095   12.02650406876717
H         2.62517854800236   13.89605206469823   12.17954560091327
C         1.16509286400433   13.28980159127019   10.74683228582863
H         1.71227577028810   13.68407738140050    9.89393866627914
C        -0.11802518847419   10.75807284042765    8.42305098972288
C         0.85008065148470   10.06769824229987    9.14281974131989
H         1.28618512746237   10.51467906693219   10.02578699574662
C         1.25348225543886    8.81009214832206    8.72736039590240
H         1.99722264592085    8.27143515947704    9.29652529304547
C         0.71091907935715    8.24293959602262    7.58646641080277
H         1.03671668605968    7.26602031965723    7.26328180760551
C        -0.25466280949719    8.92827258934717    6.86496931518379
H        -0.68258277273595    8.49092034031399    5.97539922655881
C        -0.66952018276425   10.17804603371044    7.28131461862569
H        -1.42794355990104   10.71346787046760    6.72418370956193
C        -2.36781386079734   12.44105278772752    8.76057618983015
C        -3.09489389537892   11.32822821423496    9.17274903303333
H        -2.57987567158006   10.44654347081402    9.52916682524162
C        -4.47573859737499   11.34677697589981    9.10441426304071
H        -5.03980724135748   10.48453141161826    9.42716865874021
C        -5.13630487298987   12.46281550843581    8.61441261039100
H        -6.21413648239984   12.46618487715821    8.55595050654009
C        -4.41489290042834   13.56676540153687    8.19118264001151
H        -4.92623405639919   14.43058418911435    7.79397835190270
C        -3.03487092962485   13.55696023481360    8.26667766503027
H        -2.46014310302265   14.41394767530511    7.93120210574064

