45
CSD_code = IXEGEY | q = 0 | S = 0 | Stoichiometry = C21H19Cl2N2Rh | MND = 6
Rh        4.38368679118733    7.24897503646699    3.26695049631779
Cl        6.57182614487101   11.30406000525261    7.75326277092711
Cl        4.75028190249705    6.91702169698554   10.25287900223019
N         3.67285998047564    5.31195618902192    3.59298907192407
N         4.60000413607875    7.18400394878438    5.28807452817283
C         3.26185770508723    4.39566487660356    2.71756640422665
H         3.30835576150295    4.65625838566000    1.66937916790013
C         2.78835937784989    3.15103581174392    3.08114968643192
H         2.47144995739124    2.45163399641981    2.32454180851156
C         2.72906462803141    2.82679180543585    4.43300892200194
H         2.35847769560010    1.86462562825481    4.75268728009638
C         3.15635908619903    3.75827374162267    5.34965867553603
H         3.13396385823789    3.55124436853468    6.40650798021397
C         3.63273941075642    5.00042270184537    4.90786926234702
C         4.11298424123460    6.00637020819385    5.80879260999179
C         4.18233824898841    5.98695713291206    7.19391539934689
H         3.87097134823959    5.20383578984130    7.85557409249430
C         4.74221906720079    7.21668572725376    7.56428279635289
C         4.99171795163593    7.93659155641592    6.34601072320442
C         5.56518971316537    9.21324185758600    6.41421248555629
H         5.77925553299737    9.79943024603784    5.53811003832954
C         5.86182614420419    9.72735744638263    7.65297702795810
C         5.62100659502591    9.04383719790023    8.85228895525845
H         5.87357210522714    9.50060642250748    9.79492459238818
C         5.06273353374938    7.79248742677180    8.79712055488010
C         4.55531396487796    9.36878759045790    3.08845756491774
H         4.25288495201233    9.77935079128314    4.05042287866130
C         5.81321406837507    8.78949572063612    2.97806642883495
H         6.46966062916298    8.78624972154737    3.84730094555204
C         6.56078551416697    8.60959668013587    1.67753437869817
H         7.42057927759927    7.96371612233285    1.86968367338051
H         6.95030844466635    9.57776247650026    1.34606338834912
C         5.69574652114106    7.97588044721418    0.57312716522248
H         5.21461014325782    8.74603105735498   -0.03010591288446
H         6.34138737290922    7.40163567978643   -0.09387601945415
C         4.63824011297690    7.05899121658653    1.15049535585869
H         4.79654164739519    6.00865845411720    0.90716851078261
C         3.34280769531039    7.48024093426432    1.44141693861452
H         2.53306775183738    6.75071820228481    1.38431662344252
C         2.84952247288478    8.90181629409819    1.28811718655718
H         1.87707516612864    8.97327941078825    1.78172759698408
H         2.69035684343916    9.11987861019615    0.22654948467654
C         3.80088572943682    9.94128822570468    1.90831281843987
H         4.51195764051393   10.30510445716403    1.16658340979340
H         3.21465313447294   10.79944870311194    2.24130325097323

