41
CSD_code = IXEPEI | q = 0 | S = 0 | Stoichiometry = C16H16N4NiS4 | MND = 6
Ni        6.83551382310896    0.55039019447236    3.46610018334921
S         7.85390923204721    2.21778251666335    2.10241524585797
S         7.58024628145014   -2.85304747671415    0.77060834459076
N         8.72531022587908    1.01449133476943    4.71864372970322
N         7.73332864820315   -0.73899315051226    2.52751594467148
C         8.93966965998961    0.35530185122320    5.85402909032258
H         8.08403741525966   -0.16284918407117    6.26715392815406
C        10.17295791055487    0.32259618254269    6.47938658159292
H        10.30428578920417   -0.23242693758085    7.39389005477607
C        11.22663417973802    1.01502631123518    5.90171768310790
H        12.20517805693368    1.01640734744734    6.35840152118524
C        11.00408729498021    1.70356016332331    4.72317416975407
H        11.79867184678051    2.25200326653232    4.23990784931462
C         9.73266763430946    1.67175796005272    4.15773624646797
C         9.50337830811402    2.39664089140798    2.85630317104214
H        10.18513629666525    1.98946020328324    2.10592113810312
H         9.70584106137395    3.46435581056301    2.96127379206756
C         6.97185337483150    3.69383431605280    2.72370671306411
H         7.55617791201568    4.57337466804403    2.44437621493098
H         6.04034128797073    3.69888420595010    2.15547058814689
C         7.58026578359092   -1.66187120547080    1.80569829774276
N         4.94619530312947    1.01405667041665    2.21297270023123
C         4.73239214784465    0.35550110581617    1.07712390806206
H         5.58801869225729   -0.16318384426458    0.66464954214243
C         3.49968785579868    0.32410523224598    0.45055201186316
H         3.36873317867261   -0.23037395555716   -0.46433748753717
C         2.44602476221350    1.01717267767997    1.02750739600488
H         1.46791170681010    1.01954542251127    0.56990928834880
C         2.66801194005713    1.70501885050058    2.20655354589149
H         1.87342099358889    2.25391929108114    2.68929281318387
C         3.93887372995840    1.67192252591766    2.77319410016547
S         5.81623160006844    2.21586879652300    4.83038342680864
C         4.16744532700742    2.39596860522880    4.07522932172402
H         3.48486265114463    1.98868058503886    4.82480789297576
H         3.96557587554788    3.46383395592955    3.97069944397760
C         6.69912881544073    3.69254917435225    4.21183744051980
H         6.11533042758475    4.57192532452453    4.49280118957457
H         7.63063849713385    3.69596348643346    4.78009107108350
S         6.09891693186246   -2.84540900916293    6.17077258243651
N         5.93846020310620   -0.74034783454896    4.40368106588640
C         6.09474733777244   -1.65899632987967    5.13024825871147

