37
CSD_code = IXEPUY | q = 0 | S = 0 | Stoichiometry = C14H16Cl2FeN2S2 | MND = 6
Fe        9.30778664493789   12.18927719604053    6.92880018550490
Cl        7.52428779741778   12.14996517557656    8.20999168841690
Cl       10.42996288537246   11.03479564107864    8.42227652395643
S        11.13377342092416   12.26586795876406    5.68376472528899
S         8.14324146535455   13.30136200421589    5.41351262064986
C         7.68236144429698    9.96535668929039    6.03644743910100
H         6.94383651093116   10.49275232146443    6.62120230087785
C         7.37265287195907    8.80288841971429    5.35892820992692
H         6.36983073529076    8.41064740859299    5.40256901175436
C         8.36483599168973    8.16205500142370    4.63289841344221
H         8.16179989352742    7.25503670729369    4.08507750997961
C         9.63397732458356    8.71711109654609    4.63455265827605
H        10.44530663494043    8.25211864592320    4.09542222154351
C         9.87082133696289    9.87579457690387    5.35740270252389
C        11.23813055500221   10.46977324231496    5.42114079940833
H        11.84567855653495   10.24706226614464    4.54483551605890
H        11.73918927197832   10.12632294448421    6.33070047603412
C        10.46668598374946   12.82187198527475    4.05164609181007
H        11.30532766504410   13.16317286957974    3.44466944199858
H         9.98592643625171   11.96793510408895    3.57533303229293
C         9.47073960429152   13.93445835997885    4.29320381155565
H         9.00059133000938   14.25651038646282    3.36399356809330
H         9.94837652023583   14.78292669859750    4.78210123250179
C         7.84670270089177   14.75891022672374    6.45850756784587
H         7.59887448207148   15.62403085378173    5.84462917343696
H         6.98133235433395   14.45223681652631    7.05294008251160
C         9.00851559053490   14.99304260222578    7.36531295981586
C         9.29653252319889   16.26587889908609    7.83250113899811
H         8.68478913389808   17.09807429108323    7.51884827952865
C        10.35095372145736   16.44643183512793    8.71238530026283
H        10.58452272174427   17.42713664959810    9.09685912684104
C        11.08684881408234   15.33207068091592    9.08511512072106
H        11.91146675661877   15.41165422888641    9.77434043506723
C        10.75045950998916   14.10026493948764    8.55995107359801
H        11.28946041589755   13.20451119808232    8.82944714856469
N         8.90101637127385   10.50612066454695    6.03921917122396
N         9.73730402271214   13.92027341418557    7.71217324057403

