26
CSD_code = IXEYOA | q = 0 | S = 0 | Stoichiometry = C13H10BrHgN | MND = 3
Hg        2.30413525054135   12.42822791110071   14.33493820926412
Br        0.68698356048450   13.60089981577015   12.82383296065050
N         3.00693590551280   10.15866472525648   13.29792759333834
C         3.76055655296189   11.51866298381820   15.73250535779286
C         4.19664491915047   12.04971748643904   16.94000293429471
H         3.81082053498164   12.99758652175896   17.29379733988960
C         5.13394453248719   11.38368827128777   17.72107281576651
H         5.45413135006974   11.81976890964305   18.65596825543805
C         5.65720196184111   10.17181925379639   17.30515796522613
H         6.38770748552905    9.65692166569489   17.91125022174315
C         5.23852918939680    9.62445081884882   16.10894435347181
H         5.63972414032530    8.67718380380607   15.77540234139718
C         4.29173616246310   10.28183938900884   15.31864796268288
C         3.87990546831491    9.64924278387830   14.07656447647972
H         4.37659342553075    8.70465989947826   13.83387440823518
C         2.57964462380044    9.52073169347681   12.13811561021421
C         2.43432249657123    8.13552413873831   12.04738349203278
H         2.65007130406126    7.51419153566886   12.90479117861984
C         1.96406440833110    7.56668412634901   10.87924086037571
H         1.84290229802599    6.49498180656818   10.81999536331853
C         1.64347882693353    8.36246484791066    9.79162528714230
H         1.27705264554904    7.91118748785528    8.88202962419415
C         1.77754357174105    9.73953497155642    9.88007563908302
H         1.51614906245278   10.36506404642562    9.04026334829015
C         2.23136237698592   10.31840561707882   11.04758964560375
H         2.33465794595253   11.39199548879408   11.12790275545703

