47
CSD_code = IXIBOG | q = 0 | S = 0 | Stoichiometry = C18H24N2O2Pt | MND = 4
Pt        4.87964494396164    5.84510666461617    5.48987606229498
O         4.30121253975228    3.87573299633002    4.84048201057427
O         3.07800966133924    1.54800230188933    5.04016138671433
N         3.88475731866329    5.91004673903503    7.34739515522051
N         5.93624368826241    6.37927334489436    3.76247921455389
C         5.29133661791722    7.67454400043826    5.96965681269255
C         6.16149164111718    8.39579975720880    5.16342568382806
C         6.39041589659553    9.73125919440207    5.45435654951996
C         5.74480019017862   10.30654529526843    6.54224772796548
C         4.85463467969769    9.58705043982798    7.32998272567280
C         4.61307122024615    8.25512615359692    7.03108318596279
C         6.78136073430193    7.57582756286567    4.05377242926937
C         6.73662099296916    5.30744409846538    3.17463439619958
C         4.86696769169917    6.75233573343825    2.83079858567192
C         3.59940730822641    7.33992224977159    7.67977939844292
C         4.81909948821469    5.37296108186427    8.34183409230536
C         2.64983390637095    5.12682244564208    7.37188652552082
C         4.91348912461592    2.95676427672576    5.55140608094462
C         6.14245826334301    3.13734493579383    6.19066889300553
C         6.71613529044632    2.11247119915864    6.92810201839875
C         6.08358865307928    0.89011305273258    7.03695828366562
C         4.86125557029587    0.67826145850864    6.40533084128698
C         4.28546525278030    1.69037228149430    5.67384706376757
H         2.94754253374032    2.41131024542351    4.60431046014910
H         7.06021257255827   10.32616166327549    4.84882135299249
H         5.92942770825371   11.34551410948911    6.77326625095782
H         4.35198232671392   10.07207479794197    8.15537674717356
H         6.92930106206349    8.15871020096843    3.13519631726338
H         7.76266938590638    7.22387260212894    4.38955381477414
H         6.10045807947305    4.43634694505108    3.01552144012100
H         7.54026101376597    5.02436052134697    3.85395115242712
H         7.17123152283602    5.61690604402127    2.21631728706929
H         5.28255042018543    7.03217924640543    1.85422168235688
H         4.30848725388469    7.59849307891392    3.23326745882722
H         4.19108372425011    5.90572303349681    2.69947411890212
H         2.61239615127999    7.59159785228249    7.27707559697613
H         3.55702029161769    7.46483549197593    8.76945536949316
H         5.72334634903346    5.98254397669846    8.35834804246409
H         5.08588688526111    4.34623829226893    8.08502189207038
H         4.36540680847564    5.38130404184915    9.34057060302110
H         1.96964071796695    5.48459000030605    6.59813338615388
H         2.15537093085457    5.19744290352788    8.34843330792812
H         2.88028242075605    4.08037687836948    7.17189905059430
H         6.64231609683696    4.10528530690808    6.09228564624139
H         7.66667796326669    2.27695963223495    7.41769589435993
H         6.53346179887940    0.09252482762404    7.60942078864624
H         4.35388530808775   -0.27147895645607    6.48111721554557

