72
CSD_code = IXICUN | q = 0 | S = 0 | Stoichiometry = C27H37ClN3O3V | MND = 6
V         6.42433702642065   -0.09997094609686    3.95066583011638
Cl        8.50079599812728   -1.30473515215429    4.86733888736143
O         7.56142419896775    0.89314810889356    3.22916552348987
O         5.49135718543743   -1.24385771244823    4.64478543157961
O         4.91571197581167    0.82808966142936    2.98739463224245
N        10.67511084944365    0.21699115252894    3.80176563701722
N         6.43905402859282   -1.70221313351706    2.19401192934078
N         6.16998288442045    1.13780738275347    5.76566996901405
C         8.16426205193888    1.60344584675434    2.33319454535891
C         9.52439939349555    1.98443476991779    2.44193137451388
C        10.11385566605119    2.71489936791722    1.41830578862118
C         9.40637756801327    3.08965583397664    0.29285699964665
C         8.06737880232221    2.73777505589503    0.18571142485336
C         7.45993586125847    2.01054438207625    1.18173268994722
C        10.32703403382451    1.65102261731478    3.67012035278329
C        11.60522708998821    0.00630447908734    4.90934179360175
C        11.19830104858548   -0.35071305584727    2.56284765354882
C         4.78669090847426   -2.32731023231944    4.56915042158123
C         5.13041919410264   -3.29244416339514    3.59661056258155
C         4.36561919788142   -4.43665024365855    3.47251277972982
C         3.27230621588798   -4.65966970263181    4.29512295815545
C         2.93723960475744   -3.72232250991343    5.25690931063176
C         3.68282877698952   -2.56911333097736    5.39846050467658
C         6.35398576062863   -3.05649853446179    2.75515381318269
C         5.29817814240441   -1.47694576083394    1.31767848105892
C         7.66562177397651   -1.61076925944853    1.41613213506164
C         4.50344283280970    2.00776265286626    3.30569897671478
C         4.42323761353256    2.48488577546022    4.63820434563599
C         3.99563292228686    3.77511799131624    4.89782382357477
C         3.61286437088022    4.63061993089384    3.87959262315398
C         3.64299306898405    4.16977370680229    2.57235858079611
C         4.07149747098068    2.89350788017521    2.29042328644357
C         4.76027509961557    1.55334136234875    5.76601771141444
C         7.01882101912438    2.32042693558835    5.79532109335425
C         6.42643800105809    0.35321345803969    6.96759613613977
H         9.72505108555150   -0.38867590409578    4.14002000425025
H         4.37723542324452   -1.54937988542624    1.89335931101081
H         5.27738335904186   -2.21610088682861    0.50086306485987
H         5.35588477997327   -0.47417802055022    0.90157917923164
H         7.24322808478752   -3.21820386617251    3.37834993145401
H         6.37639856545903   -3.79920707975838    1.93674013718658
H         7.74749471691409   -0.61799818001726    0.97339106926431
H         7.67850695710078   -2.35836323945539    0.60517859537537
H         8.52280317728001   -1.78704383009388    2.06718836813235
H         6.77056060588464    2.96121852860214    6.65498818267789
H         6.88203369273804    2.89620301434186    4.87946164911057
H         8.06212765091730    2.01278054658505    5.88015336612990
H         7.46773676966970    0.02881619576892    6.98768679696993
H         5.78880907733453   -0.53143898693916    6.97391603009151
H         6.22293572742192    0.94264608665939    7.87473951855474
H         4.52174953073213    2.04358927637470    6.72571534842620
H         4.15471839906215    0.64376058928561    5.67383036647173
H        11.15230083982980    3.00434249886960    1.51383747497036
H         9.88784940340056    3.65910459334741   -0.48683255037784
H         7.49865253350255    3.03854324551236   -0.68194020532351
H         6.41632173880748    1.73771001453471    1.13055566223984
H         9.75756923098828    1.91894795299013    4.56425151561155
H        11.25603280448830    2.23281155366825    3.65524336719912
H        12.56619659927396    0.48393348898415    4.70847563824330
H        11.74848988606371   -1.06145960002478    5.05497605501855
H        11.18135467183707    0.41566586367207    5.82279242391091
H        10.48830698584370   -0.18220298663628    1.75598710129564
H        11.34511178624411   -1.42035690165030    2.69369507598560
H        12.14973709015346    0.11591088507125    2.29813160785536
H         4.63155943295981   -5.17100861757166    2.72375929415900
H         2.68720450322445   -5.56001632065882    4.18475587000719
H         2.08696658841678   -3.88922696126612    5.90236179253239
H         3.41968379628244   -1.83089252502657    6.14493333102576
H         3.94647514917237    4.11695924128851    5.92535439277060
H         3.28249323659506    5.63416109433458    4.10321166503625
H         3.32827985484709    4.81793805428696    1.76528714742236
H         4.07991862787370    2.53455645364530    1.26989441429915

