30
CSD_code = IXIFUQ | q = 0 | S = 0 | Stoichiometry = C13H11N2O3V | MND = 5
V         7.22628812675863    1.70901766831792    0.91628239651089
N         5.69152662674129    2.99846436311944    0.98956946521020
N         6.16010590621029    1.34779078399396   -0.90677319434403
O         8.17455386193423    2.90545026955301    1.11176046254682
O         6.73998671107198    1.11333598824866    2.24994788323953
O         8.30702273017851    0.46948678627587    0.30511986790636
C         5.58757051009236    3.78823625853684    2.05535697270550
C         4.56814216094060    4.71555264200517    2.18479769655210
C         3.62392667598984    4.82622347453192    1.17217975946697
C         3.73797020160507    4.00092829746123    0.06934676456806
C         4.79471825405975    3.09490673154579    0.01876734205652
C         4.99416715166247    2.16197857929716   -1.13936642308409
C         6.45233575762104    0.46629538137206   -1.79840478440272
C         7.55821407325520   -0.41915317948332   -1.74813198394054
C         7.77463549608702   -1.34958033728551   -2.78210432439323
C         8.83991603680026   -2.20881901958725   -2.74811763690813
C         9.73180762016125   -2.16380687081435   -1.66809983224717
C         9.55669072507139   -1.27197490873309   -0.64481241880705
C         8.46507099991926   -0.36468516361635   -0.64308322676551
H         5.80644839693181    0.37466299855287   -2.68323722810033
H         7.07910055201593   -1.37453526154163   -3.61030179395128
H         3.02725999574894    4.05054059405256   -0.74208097836832
H         5.10891990458070    2.75127804099790   -2.06468523142990
H         6.35628875115193    3.65132073264961    2.80725362550256
H         2.81741664162319    5.54057618352346    1.24247381669848
H        10.23771646506782   -1.22729089147951    0.19286035725966
H         4.51479816270764    5.34025107483571    3.06191374983559
H        10.56993508309696   -2.84534440980758   -1.64649479248074
H         4.09529894719601    1.53358282154319   -1.25911613326740
H         8.99716747371839   -2.91868962806562   -3.54532017756881

