34
CSD_code = IXIFAX | q = 0 | S = 0 | Stoichiometry = C16H12ClN3OPd | MND = 4
Pd        4.31864528109520    5.25523999146792    7.86861423411492
Cl        2.93249359854224    4.47067295431783    6.36830191465957
O         2.71288835164417    6.32182442509017    9.00732231925443
N         9.38691039469596    4.52374944255941    8.00706909889615
H        10.35662963396379    4.28219353325983    7.88413713226140
N         5.35217122843273    6.14218372225168    9.41344007293282
N         4.52463133749318    6.85681402319000   10.23395608043771
H         4.94339048211203    7.37896634648303   11.00008788133410
C         5.93033447089073    4.42645227448387    7.04085581815561
C         5.98838064915530    3.63583203014923    5.89656292265611
H         5.08035410307982    3.41442917043473    5.35389776959391
C         7.18724429001790    3.10797806622965    5.40984814991095
H         7.16207435255311    2.50285874633163    4.51551008757359
C         8.39602018726296    3.33709480339184    6.03508637431555
H         9.32077693705379    2.92826464486825    5.65549571132829
C         8.36541724538730    4.12180109572940    7.17759496653563
C         7.16039592271836    4.66051742870989    7.67789877641813
C         7.52098304707457    5.41062945786726    8.85661876685025
C         8.89089840766032    5.28993009781422    9.00496509815249
H         9.52930008512467    5.70503504534633    9.76207655298231
C         6.61812360804345    6.12648018920510    9.67645844312344
H         7.00735317770285    6.67254692528732   10.53966533997515
C         3.18772097260467    6.91333349623923    9.97463915553017
C         2.35103563501846    7.72772005637515   10.87984493058897
C         2.72984489501457    8.08957729005438   12.17200894843819
H         3.66772961698182    7.75669166317894   12.59374313713018
C         1.88177919068679    8.85484075758169   12.95118985008790
H         2.17843668815970    9.12831062985150   13.95289900920348
C         0.65474646175022    9.26613866229375   12.45560216417431
H         0.00053169950080    9.86630632128595   13.06983814425337
C         0.26554490003984    8.89734542063321   11.17772542028823
H        -0.69412779098992    9.20701130662323   10.79301439230761
C         1.10517689853200    8.12915852446926   10.39555945692445
H         0.81866404099578    7.82707145694552    9.39967187961036

