90
CSD_code = IXIJIJ | q = 0 | S = 0 | Stoichiometry = C32H44BCoN8S4 | MND = 6
Co        0.71345853757712    1.41539636376647    8.75825483830583
S         2.60390463653104    1.50371117759386   10.04900382517958
S        -0.55590836982693    0.40650660151864   10.41941910098114
S        -0.75427237537142    0.98963136677849    6.93851459434536
S         0.03774035606399    3.77071019651727    9.12762106156874
N         2.52135062860996   -0.91343394124596    9.00305848331314
N         2.86239601168645   -2.18070855159677    8.88349161005643
N         0.08558744530950   -1.39385696863808    8.63709395013998
N        -0.12392001657699   -2.43020101258448    7.85571720297759
N         1.38315153405637   -0.52358727778656    6.76802276059872
N         2.35200010370342   -1.18322690266480    6.18442177531670
N         1.58917388511165    2.47599751441580    7.56403655701032
N         2.46252908009302    2.22242353762514    6.64642559366368
B         1.25293806723979   -0.44197922081850    8.27432226053140
C         3.20527420079621   -0.03968818654004    9.77803829525113
C         4.40302527980764   -0.49358509638801   10.38896941763151
H         4.97419497641548    0.21273301896577   10.96984323961106
C         4.76679374447096   -1.79382445790380   10.24166847862013
H         5.66599557093518   -2.17438436081252   10.69853049458533
C         3.91932808556578   -2.64852620934659    9.47928924419706
C         4.20180752078856   -4.13022821743308    9.36526496596522
C         4.16304144048652   -4.74164332039266   10.77292205853113
H         4.92625112644887   -4.31032389311484   11.41570846183881
H         4.33409218183634   -5.81394115272106   10.71341386144314
H         3.19154665911952   -4.57272798268351   11.23246907651485
C         5.58681007103754   -4.34735660325239    8.74387963230988
H         5.64669778168653   -3.87026871958391    7.76911427118977
H         5.76987233662853   -5.41193636652108    8.61935258102280
H         6.37325141988509   -3.94061084493702    9.37424170156169
C         3.13659631461868   -4.80040339431204    8.49874419094504
H         2.15260867877135   -4.64580836945077    8.93087245292555
H         3.33093089325769   -5.86781202814842    8.42673281154461
H         3.13340001841684   -4.37329414995114    7.50124804154700
C        -0.71754473686436   -1.09272655707963    9.68826056650784
C        -1.70763061031609   -2.04072014142636   10.04562108638192
H        -2.30377873826701   -1.84592530198515   10.92271039105265
C        -1.91639049771782   -3.11840293291284    9.23944564770227
H        -2.68708399610779   -3.83497103532342    9.46852829760379
C        -1.10320606504616   -3.26070561055458    8.08278423676543
C        -1.33682302060030   -4.29731338262107    7.00214113468184
C         0.00361596057158   -4.90970407848845    6.58569045926706
H         0.71457021913015   -4.11828182306480    6.37028795603208
H        -0.12572485759330   -5.52837573299420    5.70086536806516
H         0.40372419321565   -5.52823400788701    7.38494839109169
C        -2.28959980246510   -5.40663337308885    7.44755003079039
H        -1.92889264847501   -5.89069271920029    8.35269950654965
H        -2.35582692592012   -6.15924378168546    6.66513771956883
H        -3.29097167997677   -5.02139459407191    7.62447565698064
C        -1.94383214309201   -3.54757886814931    5.80594021073472
H        -2.87355381276110   -3.05877125183565    6.08992071362840
H        -2.15106560729714   -4.24118836673138    4.99442181068673
H        -1.25062446908429   -2.78787768767348    5.45280927306177
C         0.33372540331613    0.00947066264815    6.09075473460239
C         0.22500140646113   -0.27221712808993    4.71642591402757
H        -0.63126461259277    0.10126374257234    4.17766137870574
C         1.22419936834405   -0.98464616650365    4.11126382756422
H         1.17554278825824   -1.21214867166080    3.05852835920771
C         2.32297071457074   -1.40871938438816    4.89677700461139
C         3.46339032729349   -2.20781379022492    4.30248134678855
C         4.58223448084452   -2.37273409896106    5.33148364108219
H         5.02896239664732   -1.41122829924119    5.56688201892648
H         5.35407417603911   -3.03135887907255    4.93946982844305
H         4.18185879826115   -2.79049603399207    6.24954783937309
C         2.91956366967938   -3.59184339377944    3.91946605855664
H         2.55747544204394   -4.11431937363939    4.80166208468635
H         3.70839597928061   -4.18679019065604    3.46506693309502
H         2.10060755938817   -3.50913936647413    3.20891242266180
C         4.01869895454655   -1.50757625827816    3.05768297587792
H         3.27834593174442   -1.45309026753649    2.26390269493593
H         4.87671168443933   -2.05950517132886    2.68051622887456
H         4.33802625001015   -0.49867236998316    3.30281926953762
C         1.14454810101952    3.71466653564533    7.85546371058296
C         1.63650793386776    4.79605006709464    7.09413634886964
H         1.27553105753300    5.79045948637757    7.30381103561215
C         2.56078323525672    4.53062350405772    6.12154638291422
H         2.96281290649003    5.32937192977667    5.51965117339091
C         2.97895931178790    3.19727016537948    5.92357080755886
C         3.98358442399122    2.77849585525339    4.86974158429577
C         4.91023727312708    3.92987189561784    4.47166645373788
H         4.37380038549346    4.70241781299794    3.92626828886913
H         5.69956702405566    3.55345457915297    3.82418441391111
H         5.37202216272563    4.37448726718151    5.35050563050938
C         3.19653395763008    2.30698508248806    3.63856426843997
H         2.56251940403565    1.46277832549447    3.89935841893569
H         3.87780978015102    2.00683135793032    2.84477996436386
H         2.56251082106092    3.10797831968411    3.26328860799568
C         4.82690849335600    1.62471445902933    5.42194869423107
H         5.40382492316801    1.96165486372521    6.28034504727081
H         5.51702534704037    1.26326994717865    4.66185068564901
H         4.18168415316679    0.81277168296966    5.74466857293212

