47
CSD_code = IXIJEF | q = 0 | S = 0 | Stoichiometry = C20H18ClN4O3Re | MND = 6
Re        6.75787199983465   -6.63280979968882   24.21257088686524
Cl        8.24018170502038   -8.08942012555839   25.12989562634171
O         5.44769160664010   -7.65278496725432   24.01782916637557
O         7.86579569763775   -5.14325606735809   24.53283862312746
N         6.16101109697229   -6.15292717730112   26.29103046668634
C         6.32410142430332   -4.95733286800423   26.87785869231982
N         5.73681661914906   -7.00881727471324   27.22194764544550
C         7.67140549509616   -3.95883703694802   25.04588765661144
C         8.01495191189632   -1.56818626360632   24.96808654045153
H         8.46340581537078   -0.70750450922689   24.49468636826623
C         6.85299660475704   -3.78964716919401   26.19306506393794
C         7.19640632381402   -1.40233135251322   26.07750181544665
H         7.00513135185168   -0.41448546811971   26.46755111343127
C         5.52194489296341   -8.40111850736517   26.94956586165556
H         4.97674010967344   -8.84736383689161   27.77750211043960
H         6.48618685643591   -8.89809676965195   26.80916439851453
H         4.96159620198574   -8.51240443895900   26.01976826459670
C         8.25697212637015   -2.82600844589298   24.46158239919423
H         8.88238058840404   -2.97095609607145   23.59286835753800
C         6.63252646806464   -2.50602252925701   26.68555271491096
H         5.99569612478828   -2.37838647163945   27.54843900438201
O         7.75590606122433   -6.83058734661083   22.46093718412677
N         4.32020715302250   -4.65299620094569   23.45782441434126
N         5.54896822846580   -5.09478171148367   23.17252524162403
C         5.98985916673781   -4.43326432447454   22.10195136220233
C         8.02142228211590   -5.85746748000990   21.63911063621990
C         7.26778494854582   -4.66577504462110   21.45755979630825
C         7.75153798165169   -3.68520571974619   20.58377046662975
H         7.19860746407083   -2.76311530703893   20.48342087079055
C         5.97080284844223   -5.07217801518955   28.23296905582706
H         6.00422727565546   -4.30623365663027   28.97856840971902
C         5.61275630103795   -6.38984638662338   28.40266606872537
H         5.28379057775972   -6.90812732941686   29.28072246329333
C         9.19067189584740   -6.01243588361326   20.86041007196271
H         9.74034469618200   -6.93223976887126   20.99112850878219
C         8.91470368367770   -3.85231429154150   19.86825591642819
H         9.26521106310616   -3.07208745878786   19.20985543737991
C         4.98744412758784   -3.52469826217789   21.69871577501691
H         5.00873677938181   -2.85934939978287   20.86214137426203
C         3.95303466966726   -3.70523946514759   22.58124151015811
H         2.99431027975383   -3.22932141317158   22.63547563661902
C         3.54007716871244   -5.19977570002941   24.52795309132754
H         2.48551816548255   -5.01479451240761   24.33251046899622
H         3.81737363315606   -4.74593337531675   25.48239285073264
H         3.72470422752202   -6.27532148069492   24.57628094162985
C         9.62886190671805   -5.03889804346222   19.99897051007294
H        10.53642639345016   -5.19061524698674   19.43304916029007

