69
CSD_code = IXIKIK | q = 0 | S = 0 | Stoichiometry = C24H33BClCoN6S3 | MND = 5
Co        4.34079026405425   15.16729985230831    8.67596152246835
Cl        5.00985856277007   13.68405874724451    7.32821611578995
B         5.54300290110867   14.80316321428572   10.17293547703382
S         5.88451772768023   16.56587719026026    7.77223847727640
N         7.77960757940446   15.35797401755396   10.94053310418736
N         6.89021605502313   15.49890450866714    9.97583839588007
C         7.10778502366454   16.27095933435884    8.87893933915816
C         8.39503688275393   16.85395602280157    8.73504624243934
H         8.58937560192348   17.43047100238005    7.84482968432065
C         9.31891938872160   16.67887492957326    9.71424356817991
H        10.30396529832353   17.10891391659445    9.63232151017771
C         8.94762327084961   15.92004678714620   10.86334762132403
C         9.88067845448642   15.77310073273948   12.04514258682288
C         9.23054624549126   14.89826518884216   13.11668074271376
H         8.28662124637856   15.33452372980794   13.43001674156542
H         9.88799977439345   14.81034492567481   13.97844464211808
H         9.02667494932709   13.90750995545712   12.72265422155429
C        10.14837111944764   17.16833856636978   12.62699486916779
H        10.62671721283675   17.81751957252838   11.89808049177942
H        10.80177978640542   17.08792003288297   13.49247822247106
H         9.21622467410654   17.63324228702855   12.94092292216673
C        11.19982677649635   15.13821031539789   11.58971769617939
H        11.01689133323601   14.17745877488306   11.11530080645684
H        11.84727492431211   14.98152654302512   12.44921583972449
H        11.72438795057486   15.77599046988583   10.88318946188507
S         3.40648568948327   16.85996283291853    9.92531083940072
N         5.21040609088661   14.71576077224110   12.58357099912669
N         4.87131584132613   15.32159013074284   11.46288278124797
C         3.96146067181953   16.32842883547151   11.41431314388091
C         3.48610976873798   16.83718796177750   12.64935809987935
H         2.81156444538330   17.67817661254167   12.62458002129036
C         3.86104040182011   16.22897718559294   13.80651758848862
H         3.50471695532968   16.58380167778134   14.76011024809076
C         4.72447817552602   15.09850102996197   13.72602095002851
C         5.11165514253641   14.29508280414216   14.94748633642648
C         5.93220906498986   13.07404482311277   14.52773990982818
H         5.34270326171897   12.42702313412858   13.88354245517910
H         6.23666606374083   12.51135714766175   15.40686010654687
H         6.81473082256617   13.38278205000604   13.97730561860340
C         3.83786877497344   13.82680707486945   15.66255555297807
H         3.26126158026220   14.66558331973825   16.04363735916086
H         4.10209869724473   13.18810004452587   16.50193868691052
H         3.20897726783892   13.25762832268700   14.98157195382727
C         5.94324898734829   15.17770767144624   15.88639897322733
H         6.85212819505225   15.50846305599651   15.38942988670903
H         6.22209038622102   14.61332990592208   16.77286234649469
H         5.38376211456812   16.05498663095114   16.20207048532466
S         3.07314185459466   13.49463649392524    9.76506754517433
N         6.78259072241439   12.68606828994625   10.45984434153226
N         5.63725223366778   13.29744806873662   10.29510885066674
C         4.44599597611702   12.64455842945415   10.25468590487054
C         4.43902939246301   11.27490788373707   10.58772313557283
H         3.49222139607254   10.76029460288734   10.63157468124016
C         5.63119231708111   10.64392077851755   10.79167307534746
H         5.66457743520072    9.59345053044032   11.03099522100043
C         6.82543280954803   11.39850295443616   10.66183674441707
C         8.19215433586520   10.76441067599000   10.79893997938325
C         9.26206368478455   11.73944141727337   10.30580870532203
H         9.12014429084540   11.94729147294989    9.24878450241397
H        10.25229757920920   11.31383494226840   10.45192324781213
H         9.18752469875490   12.67846955422431   10.84425248837836
C         8.26413960966820    9.47825130902263    9.96807659795110
H         7.61281960626634    8.70418479538656   10.36500232673309
H         9.28200859221675    9.09546537530674    9.97456348390213
H         7.97843249768233    9.67718713033489    8.93789679394030
C         8.42398786411519   10.44543175439081   12.28223334625623
H         8.38129689121099   11.35563259190488   12.87559121707062
H         9.40115458142123    9.98734978720402   12.41551878339083
H         7.66837022765837    9.75812751973960   12.65564438212926

