86
CSD_code = IXITUG | q = 1 | S = 0 | Stoichiometry = C44H37FeN2P2(1+) | MND = 8
Fe        6.66041705146554    3.28219322425279    4.12575381275937
C         4.76329351382210    4.35030085778117    4.28806409194336
H         4.26877433925980    4.72835743742028    5.16671629098268
C         4.54104900784782    3.06693239419705    3.70459159813726
H         3.83200972423118    2.34027660514624    4.06500322398038
C         5.24779699367708    3.01482583760045    2.49152573369195
H         5.21616053123366    2.21231468798494    1.77338173243463
C         5.94010001144556    4.24373204242590    2.33538942841068
H         6.49055018304110    4.55083939260397    1.46246008552784
C         5.59117361731225    5.08031299274671    3.42304722229581
H         5.89969192717808    6.10338212935149    3.55135021466561
N         8.10287363584820    4.26087839951193    4.42069752077411
N         9.26128342320032    4.35641796671699    4.44729335956120
C        10.50153117659193    4.58691441606897    4.56948044004134
C        11.41953954835597    4.94317765071463    3.49981118809614
C        11.18378132797375    5.20128017445259    2.16164993410457
H        10.18423098726720    5.14759416728101    1.75504246007005
C        12.26565884514862    5.52778661468680    1.36005009086275
H        12.10785920737282    5.73514303658288    0.31262483201960
C        13.54925374939268    5.59548458015002    1.88594586114735
H        14.37334889526155    5.85204915719101    1.23790977015109
C        13.78879663162219    5.34707388277161    3.22919890402808
H        14.78901208590585    5.41099465265703    3.62908396158972
C        12.71960206260209    5.02210152625332    4.04510105711658
C        11.28791822724184    4.46537590100181    5.78829591197480
C        10.90893339016885    4.13655719226661    7.07789375178651
H         9.87435340426610    3.94073765659642    7.32212666630192
C        11.89233443825750    4.07704140297463    8.05309312143214
H        11.61803714355921    3.82904914926616    9.06738267220479
C        13.22132451882097    4.33438979815772    7.74343863952120
H        13.96558246298275    4.28333137616537    8.52324941921240
C        13.60697609463309    4.65561188257989    6.45033204224396
H        14.64267644276102    4.85133111299938    6.21969083689172
C        12.63896935337859    4.72208242172349    5.46389832600026
P         7.98723716630795    1.64642751552163    3.59885762463609
P         6.57484085103958    2.42398998169391    6.12751619922055
C         8.82057426097632    1.13652776045168    5.17327260239921
H         9.37657308556122    0.20509135249465    5.02541073533925
H         9.51995193290627    1.92576281632768    5.46844822609885
C         7.73439524469827    0.97333530158294    6.23297788309532
H         8.16523434380215    0.89564709138407    7.23474877198344
H         7.16436583814248    0.06262613355498    6.03100192905618
C         9.33294948827428    1.92729633455260    2.41686339641279
C        10.68757161510054    1.82652982595768    2.71567198507173
H        11.01655442003925    1.57504379931729    3.71289648326748
C        11.62607803527550    2.04581536320190    1.72211575797824
H        12.67686025512288    1.96718351030889    1.95514333645325
C        11.22382696158730    2.36760761199825    0.43673676742059
H        11.96268995007833    2.53428496804373   -0.33138011683736
C         9.87454509657025    2.47876980598019    0.13701073069881
H         9.56095544690989    2.73167882738204   -0.86443749766285
C         8.93309077551209    2.26337764004918    1.12448603383045
H         7.87519281233519    2.34184748524714    0.90864349214132
C         7.28939302961966    0.06255149383310    3.04402986632833
C         5.95171145329752   -0.21770453339184    3.29717972342344
H         5.33864743728011    0.53268634446666    3.77568468316816
C         5.41642698378948   -1.43993422927460    2.93298846951969
H         4.37675935024065   -1.65413870949920    3.13099606455985
C         6.21508919269522   -2.38468307002173    2.30892521045254
H         5.79765451273881   -3.33638170902239    2.01884208374284
C         7.54895054322070   -2.10738403513817    2.05232025263661
H         8.16925455316706   -2.84330551112127    1.56385288050571
C         8.09047793723297   -0.88862598482895    2.41800814443091
H         9.12943002533698   -0.66952200550977    2.21457454522354
C         4.99240687234978    1.81113096236368    6.78253882866109
C         4.51525218987221    0.52499910156133    6.54740482432362
H         5.11069800209593   -0.19752775593598    6.00896299913398
C         3.26419896502211    0.15439543263950    7.00833646438466
H         2.90555044025470   -0.84801453382663    6.82963567351600
C         2.47273830715587    1.06216098479790    7.69244630021826
H         1.49770341839235    0.76810467214786    8.04845606436218
C         2.93542969333154    2.34934403716984    7.91664732959657
H         2.32202318892864    3.06049828813779    8.44835724380648
C         4.18435529479963    2.72423755395236    7.46005842990532
H         4.54858005445263    3.72684636511221    7.63953799024208
C         7.10990129046744    3.51531860614211    7.48252927022074
C         7.24788010190414    4.87952092933666    7.24959159371964
H         7.04582338375792    5.26846148699242    6.26094243955183
C         7.64759336819883    5.72173545355836    8.27246142037722
H         7.76168973064644    6.77851853252779    8.08565971256609
C         7.90234434139032    5.20674133503670    9.53283495007066
H         8.22070138372917    5.86172246929708   10.32896347741234
C         7.73696663413656    3.85159141201434    9.77684482534604
H         7.91760108731799    3.45411543962165   10.76404499235479
C         7.33550838853753    3.00585303192213    8.75980002259165
H         7.18437731127986    1.95347329961225    8.95868468108806

