55
CSD_code = IXIVAM | q = 0 | S = 0 | Stoichiometry = C16H30ClCuN6Si | MND = 3
Cu        3.31550184716973    6.39863192740762    6.97968547176163
Cl        4.71048514366624    6.53662962333207    8.73307050098216
Si        1.36019854302260    4.04114567521440    7.25910772821215
N         3.61738311148609    4.98995387837487    5.58840299135702
N         2.96093624063041    3.32659367525607    7.02644279346422
N         5.02592653090444    3.15605773101001    5.90447072895612
N         1.38135213332495    6.96152328290535    7.22795538928355
N         1.39006673223045    5.15216409808530    8.61931354734989
N         1.12498603967839    7.30223933179979    9.53711213187511
C         3.89127464812162    3.85753654216011    6.17193221460689
C         4.53803424708591    5.42277790839919    4.55625539679195
H         4.30228025202706    6.45749450515584    4.30505656353428
H         4.40338941376880    4.80545647779286    3.65752519679881
C         5.96379522359541    5.27610912499274    5.07516840414530
H         6.70109035149034    5.66683651518930    4.37504269597091
H         6.04056707559685    5.82338974278995    6.01743731769686
C         6.19019193923138    3.79144342574533    5.30927894005230
H         6.40924242803991    3.28553866252329    4.35768655068360
H         7.04861068171823    3.63781400507863    5.97599576464610
C         5.29941654582105    1.81460171643450    6.37087843585402
H         6.09438547991094    1.85094498419344    7.13070927573883
H         5.67746576688930    1.22756863655567    5.52299559321686
C         4.05700524908013    1.17790210244181    6.96508241063238
H         3.35283847940950    0.90367043374298    6.17784427337056
H         4.32340611035125    0.28458959900724    7.52919876229936
C         3.41314966287700    2.22905834191612    7.85736604087032
H         2.55900244519681    1.81695524055818    8.38788759040811
H         4.14153546303021    2.59087841837056    8.59338167442703
C         1.33435988035553    6.51347729463918    8.45309846324098
C         1.11036881379648    8.36881139511438    7.03128772637185
H         0.02845889172971    8.54744415008254    7.09580312358487
H         1.44394049500510    8.63511014654885    6.02655500123556
C         1.83529570017104    9.17801274441115    8.10054149704216
H         2.89980964184690    8.93287082290751    8.05154045847166
H         1.70832510380312   10.25131838896435    7.96342984713572
C         1.27604266347694    8.74744949590717    9.44786890326347
H         1.94766147253298    9.07449345949567   10.24988666517104
H         0.29207545589976    9.20743950135380    9.61851820848806
C         1.13943997989887    6.82182286780493   10.90449747365415
H         0.35987479129061    7.36048658914251   11.45780058266814
H         2.11117610984119    7.06530901882418   11.35770664866074
C         0.91910407221879    5.32142186380242   10.97115448516155
H        -0.11707378422463    5.07440155658418   10.73174820126968
H         1.15045997597492    4.95500252696388   11.97107414994717
C         1.83149090317886    4.69894055562668    9.92628309708449
H         2.86908490930941    5.01478501296602   10.09024115104416
H         1.78878458820449    3.61205456548522    9.95818701798820
C         0.57673094778673    4.64410386114277    5.64366413148170
H        -0.35608308530581    5.15505434395682    5.85157077753414
H         0.36178254662330    3.80094424244022    4.99424863735617
H         1.22291520108759    5.33336258702965    5.11827525701234
C         0.23241033872009    2.60671795687664    7.84213065248091
H        -0.80479608547952    2.89858430777530    7.71716841159358
H         0.35423581511272    2.32387175948920    8.88192929310215
H         0.38790687180181    1.71970337824164    7.23750575296240

