91
CSD_code = IXIVEQ | q = 1 | S = 0 | Stoichiometry = C30H56AgN4(1+) | MND = 2
Ag        7.35599298712421   12.44036308261446   11.26997130963196
N         7.53393676155253   10.30529709639826   11.10793663189299
N         8.19217221686482    8.21200506228797   11.22319345726813
N         7.16334230849725   14.57981895375097   11.34745365318393
N         6.39105458971512   16.62581255734616   11.56547775482228
C         8.40070114920464    9.46222187773088   11.64671804155644
H         9.18066828053056    9.73832553966466   12.33037615678869
C         7.12921518532504    8.24726719215130   10.37398797076944
H         6.75193712888004    7.37144403340791    9.88877601683385
C         6.72821897510861    9.54707155990506   10.30449479916335
H         5.92593399872273    9.97813174901085    9.73760022395764
C         8.89498275074305    7.02468081264234   11.64021015564995
H         9.88517893514922    7.31243652948272   11.99619103419206
H         9.01141181863666    6.37229787938040   10.77145975077392
C         8.12689211920870    6.28383152054390   12.74102846389600
H         8.62531979091252    5.32983589993330   12.91548542127883
H         7.11765319338229    6.07236744642970   12.38139591835040
C         8.04404817765129    7.05735688623559   14.05725242168553
H         7.63633555367514    8.05636263202006   13.87975271371560
H         7.34302476243632    6.53552622724409   14.71089639748209
C         9.38614254661178    7.16567862587901   14.77957137545618
H         9.81272449471106    6.16659923237135   14.88977728128243
H        10.09044088213295    7.76182753226696   14.19447019801214
C         9.23931040759902    7.79614476988049   16.16298479932292
H         8.82977770070382    8.80485018739122   16.06503983727079
H         8.53048686715590    7.20937112384118   16.75076030312108
C        10.57304124279708    7.85634427486446   16.90426580297547
H        10.99111116645676    6.84939010726782   16.96909045981314
H        11.27885602602256    8.46966789671136   16.33841023847137
C        10.42494854352176    8.42544036412256   18.31314531943751
H         9.70402212666850    7.82245894107086   18.86973418072465
H        10.02933359468712    9.44247666429378   18.25615040869249
C        11.75363265369019    8.43880134531720   19.06524996354761
H        12.15354955913848    7.42300905904819   19.10464138193077
H        12.47311971582324    9.05476268378107   18.52026361491867
C        11.60474578459243    8.97383061277648   20.48733502431425
H        10.87691555266776    8.36343989125380   21.02709414170450
H        11.21640113062836    9.99469312556283   20.45209336825105
C        12.93009656158029    8.96286224758206   21.24502944316474
H        13.31949055222605    7.94254650136854   21.27466676059259
H        13.65797824493016    9.57777812345722   20.71010137083145
C        12.78210166331109    9.48479542408896   22.67217692464899
H        12.39402299635599   10.50572391116858   22.64461275137996
H        12.05478842661536    8.86951487006159   23.20668228169431
C        14.10799858697130    9.46686397380125   23.42253216661562
H        13.98009687928223    9.84196453425837   24.43501646751003
H        14.84221980085347   10.08966552645633   22.91600234541374
H        14.50046996352840    8.45396748134207   23.47922876149981
C         8.15130320924069   15.46025747979581   11.00539815298811
H         9.12097652847053   15.12872745096518   10.68877220205578
C         7.67942642829978   16.73133914907666   11.14133592404285
H         8.15173307035098   17.67530183899977   10.96656230310617
C         6.11974568027056   15.32171293411806   11.68150916131412
H         5.16923484960610   14.93724094446442   11.99906501894699
C         5.51090146972121   17.71512853199645   11.91115982499316
H         4.50284881622719   17.47227243167540   11.56558143150994
H         5.85553905036917   18.60999380884672   11.38914290878378
C         5.49838259317919   17.96369722556157   13.42336040169928
H         4.76318810833018   18.74179552608280   13.63117482458127
H         5.17588874434059   17.05476334863994   13.93595318286789
C         6.86128620683029   18.39597697275462   13.95979047726860
H         7.60375508324035   17.62003704887128   13.75534379252790
H         7.18073852807110   19.30776110003796   13.45033688783272
C         6.81961676114041   18.65154347517888   15.46489256412966
H         6.10431357387915   19.44799586811708   15.67852386984661
H         6.47218419167291   17.74997278281873   15.97488756636714
C         8.19040974747160   19.04149883671914   16.01255239976497
H         8.53157455138527   19.95476354802985   15.52023514729814
H         8.91003650002366   18.25243287959825   15.77956759726528
C         8.16150291972259   19.26291661758600   17.52272385110557
H         7.46037834148894   20.06644822871729   17.75777240998613
H         7.79972668374131   18.35594411438526   18.01306277097739
C         9.54020105677312   19.61656951646358   18.07482233939134
H         9.89634153856825   20.53339486753027   17.59968186870912
H        10.24460027498509   18.81991065335751   17.82267059405499
C         9.51967921223305   19.80752129089836   19.58927108659673
H         8.82738705901042   20.61344840585646   19.84282373399306
H         9.14988073077804   18.89469906407993   20.06264806183702
C        10.90335465238006   20.13672691919698   20.14410452081384
H        11.59736689610475   19.33421901821939   19.88189349506880
H        11.27055684441232   21.05427110244810   19.67840467130738
C        10.88666169445495   20.31207525922113   21.66044983120951
H        10.19762725907799   21.11810589764685   21.92318942563278
H        10.51465260321992   19.39590707051500   22.12560100974244
C        12.27144932434080   20.63216923983491   22.21806461933876
H        12.64297738147777   21.54931305825304   21.75540644268618
H        12.96107557785255   19.82673695748599   21.95455975184588
C        12.24724256129201   20.80262376910962   23.73187245034329
H        13.24179171485010   21.03031606871978   24.10773087892214
H        11.89877890697195   19.89131839089755   24.21317772279216
H        11.57993871858100   21.61412773639825   24.01363755957736

