111
CSD_code = IXIXOC | q = 0 | S = 0 | Stoichiometry = C36H68ClO2P3Pt | MND = 4
Pt       -1.48097045626688   -0.39851120334095    4.64921513931449
Cl       -2.31080230043701   -0.35341741502341    6.88570559303769
P        -2.01009297086674    1.83418381978154    4.50544452649032
P        -0.43496387241543   -0.42447681955314    2.58643866161637
P        -1.10732824918031   -2.56980412923254    5.30310995984652
H        -0.60914053304692   -3.56926536218410    4.45968515623561
O        -1.63983662645804    2.59350227977803    3.17326942729320
H        -1.01170503357700    2.03391260443446    2.61919695173636
O        -0.11744002377238    0.90804450325407    1.98124442442230
C        -1.04310462055489    2.71294039905453    5.81904335982518
H        -1.47658138757936    2.45266643245153    6.78917940279889
C         0.37909187773863    2.16004936951890    5.75205084723614
H         0.34540635570010    1.07554039983140    5.92746654641174
H         0.78387092362368    2.32995114556290    4.74986472292499
C         1.27330638565062    2.83009547888346    6.78811899113984
H         2.29130050997594    2.44156213743465    6.71016241012943
H         0.90061400051574    2.60053255090199    7.78937483494868
C         1.27321016236559    4.34213158867986    6.58196379001262
H         1.90163740981711    4.82110260681103    7.33596926114624
H         1.69201064968670    4.57254625240100    5.59977533588527
C        -0.14827096287614    4.89082369027300    6.66576454993467
H        -0.14021140391151    5.97135955657301    6.50682178383158
H        -0.54976928968308    4.70222790300902    7.66470811770075
C        -1.04555819221190    4.22413230127645    5.62544332555840
H        -2.06210084651483    4.61556426483501    5.70710121664304
H        -0.67796045513482    4.45453741325181    4.62307492623159
C        -3.76888262756663    2.38594992923803    4.69367158757751
H        -3.79098248004706    3.40077950269128    4.27469975598487
C        -4.28351904618051    2.40050155579278    6.12762601705982
H        -4.17919785831328    1.40509984296285    6.56214612882523
H        -3.69885934947200    3.09462826556497    6.73431740535236
C        -5.75229126180862    2.81737951833499    6.15911987784356
H        -5.85025440107275    3.83540556339853    5.77259056860024
H        -6.11014048759341    2.81511704831632    7.19076998054965
C        -6.59798193848042    1.87280626091957    5.31173052448687
H        -6.52937843288457    0.86255932268693    5.72142363946256
H        -7.64608099588831    2.17825340070503    5.34263945942367
C        -6.09534237733172    1.87059312673071    3.87182307621434
H        -6.20798733046867    2.87070984452379    3.44642843788246
H        -6.68795882062239    1.18065576828061    3.26697022581157
C        -4.62618010040464    1.46553279895795    3.82645375599602
H        -4.52108220731927    0.44086185063777    4.19975004516441
H        -4.26168931026412    1.49352441667047    2.79712179253085
C         1.16366698461143   -1.36613169370877    2.74548135683315
H         0.95760278861199   -2.39160290574599    3.06953427576685
C         1.97718901640916   -0.64869338890087    3.81517997109731
H         2.07517562508367    0.40019688272208    3.52473872940452
H         1.42925882389455   -0.68778927741317    4.76426498458996
C         3.36277366839302   -1.26368286397161    3.97219223825458
H         3.93209395053153   -0.71226811981703    4.72384235970642
H         3.27108675196367   -2.29771129137206    4.31491510790470
C         4.09982568692227   -1.23988341853980    2.63636043774736
H         5.08596187834902   -1.69690353757315    2.74532767069430
H         4.24131870641332   -0.20397353828124    2.32141249277037
C         3.29559149537573   -1.98269874853263    1.57370333139577
H         3.82260875050251   -1.95038758248353    0.61776585889851
H         3.19470592963557   -3.03225266559883    1.86419944744274
C         1.90814233460755   -1.36533316193442    1.41755630945958
H         1.33912995197628   -1.91710116483967    0.66566401052803
H         1.99809177135295   -0.33172796232258    1.07685892556865
C        -1.45867730182851   -1.35658838514724    1.34186975050271
H        -1.01049383195367   -1.15321717043890    0.36197922307362
C        -2.83911881947731   -0.71242442055667    1.41368552517162
H        -3.20886351469147   -0.82117183210388    2.44292368820237
H        -2.74382720045394    0.35495172433941    1.19994362962953
C        -3.81872626361885   -1.35987038927032    0.44289726457539
H        -4.80262245904973   -0.89664499834766    0.54305936404663
H        -3.47368700516218   -1.19704657207204   -0.58085695747641
C        -3.91661515594098   -2.85802452673123    0.71145950361589
H        -4.59531630857057   -3.32420474482215   -0.00606081207380
H        -4.32756524831479   -3.01811790340913    1.71088438207530
C        -2.53780383142704   -3.50376643405643    0.61502133300663
H        -2.15918511673171   -3.39087917571725   -0.40387508728215
H        -2.61079644584562   -4.57383299663388    0.82549963350090
C        -1.55677163378037   -2.85250710617031    1.58784520279452
H        -1.89945751902451   -3.00810247516018    2.61583422886924
H        -0.57650577780425   -3.32263741492844    1.48379219641207
C         0.14145060073039   -2.75404562372466    6.67539191903359
H         0.65393330015552   -1.78278335354078    6.73007637307358
C        -0.45543714467982   -3.02456954714233    8.05608230742160
H        -0.96577614225061   -3.99002574002788    8.06478625547783
H        -1.17849190890239   -2.24627958649556    8.30500854436300
C         0.65784831164883   -3.04315582315731    9.10093546576218
H         1.13843338196379   -2.06285607732800    9.13646764471279
H         0.23052579396242   -3.24103350303090   10.08598880652135
C         1.69775341186628   -4.10662059876490    8.76090191144896
H         2.49539009097415   -4.10041100856958    9.50636379290684
H         1.22852738059257   -5.09345714239803    8.78301522710109
C         2.28210982754031   -3.85476535396942    7.37431277232742
H         3.00563675577765   -4.63428249026060    7.12525882322340
H         2.80758144154412   -2.89678726094188    7.37023254300009
C         1.17515096475231   -3.82404549381638    6.32422881779549
H         0.68873573146016   -4.80234725827059    6.27839796032263
H         1.60571943002022   -3.61767853961332    5.34081356453321
C        -2.66305902524246   -3.43100466937619    5.81337219139310
H        -2.87457060952357   -3.12327486242717    6.84302726360008
C        -3.81517447126830   -2.94768811702417    4.93101563506630
H        -3.62979716104458   -3.23775504530530    3.89378607637787
H        -3.87255915758275   -1.85333018905876    4.97833958015086
C        -5.12798218589720   -3.56782673308185    5.39485400931208
H        -5.33943226119181   -3.24547818438228    6.41674453425384
H        -5.94730974851351   -3.22574815556377    4.75872904960882
C        -5.03411329492031   -5.09088934579626    5.34772490840011
H        -4.88921342493426   -5.41253546692834    4.31326561803357
H        -5.96571718154943   -5.53266873425946    5.70657660505178
C        -3.86694150307870   -5.58548698783569    6.19809073286714
H        -4.04468174288592   -5.32364944282431    7.24384364712194
H        -3.79432333426405   -6.67347478166038    6.13314896907903
C        -2.55595294065573   -4.95194224341009    5.73635064433103
H        -2.35257314992318   -5.25041594769544    4.70355123120629
H        -1.73248274053604   -5.31484721779867    6.35604145734692

