65
CSD_code = IXIXUJ | q = 0 | S = 0 | Stoichiometry = C26H30Cl4N4Pd | MND = 4
Pd        2.14811638115246    0.67880903162049   12.49991790556402
Cl        0.29712015780844    6.88444139916123    7.29541484134144
Cl        1.85095039318991   -0.95093334643983   10.88059308634420
N         3.84539497778407    1.23034517909214   11.62046458370586
N         4.03804601237470    2.36854817667511   10.94350199447654
C         5.02359332200955   -0.88127270532470   12.06689046346326
H         4.38273036139758   -0.93347065843627   12.95514999093453
H         6.05364565929454   -1.08614568822807   12.34859269417065
H         4.69484427260731   -1.64535615455790   11.36196244195078
C         4.91240999227375    0.46401108913436   11.44216272495631
C         5.82091418232463    1.13633412121427   10.61578281328663
H         6.77569627663443    0.78169855940477   10.28667521755458
C         5.23187334710779    2.34711667504538   10.31347056809163
C         5.71995786584600    3.47072394056115    9.47636520476592
H         5.02260497504836    3.67354107959932    8.66435887476220
H         6.68739853290121    3.21548425846249    9.05407597273302
H         5.82910424321576    4.37831868173827   10.07024850769011
C         3.08463835856552    3.45454339052953   10.97457200612022
H         3.63195491650961    4.39721250144749   11.05262574526234
H         2.47895320971931    3.32181998374327   11.88595277245080
C         2.19388725407924    3.45468639554742    9.75755336936906
C         2.23450898533089    4.48800276824572    8.83461729914842
H         2.89911913624081    5.32632286796665    8.99067107091080
C         1.41454942313805    4.46889018420974    7.71189567726704
C         0.54682461855287    3.40040724980502    7.52246151507268
H        -0.09515904931435    3.38196071909134    6.65443688577294
C         0.50083636627149    2.36658487479100    8.44207820043800
H        -0.17321562912191    1.53753558552355    8.29162425215026
C         1.31801673757466    2.39427813458258    9.55660277097927
H         1.28335565128028    1.57707363452726   10.27964828090282
C         1.44157596390975    5.60601344344803    6.74475189987861
H         1.11070113610456    5.30671396166887    5.75147343766056
H         2.42107915213113    6.07935646064312    6.69193568843415
Cl        3.99949004593678   -5.52610446955441   17.70559023420440
Cl        2.44500667830498    2.30837467802496   14.12067885753907
N         0.45123217803608    0.12821714584349   13.38091633645076
N         0.25856292032249   -1.01005823196063   14.05776260114989
C        -0.72717401840809    2.23971373253432   12.93448751325188
H        -0.08643547495296    2.29182521968955   12.04621408759864
H        -1.75723081656411    2.44461840665497   12.65285859144938
H        -0.39831095859671    3.00380258913912   13.63929103067725
C        -0.61582017090164    0.89452553707188   13.55922758281787
C        -1.52436899805184    0.22206809701708   14.38548402942701
H        -2.47922515794570    0.57659560607534   14.71451040765732
C        -0.93534827487573   -0.98875356613978   14.68766809763139
C        -1.42345122261275   -2.11247853495421   15.52462805879900
H        -0.72607029337148   -2.31532873861311   16.33660977520169
H        -2.39088070289933   -1.85728470970238   15.94696981068570
H        -1.53259647820386   -3.02004805265690   14.93070815136947
C         1.21194133961943   -2.09606724918161   14.02655998166561
H         0.66460521024555   -3.03872256319264   13.94839061460745
H         1.81759353255122   -1.96323624559443   13.11517219723632
C         2.10267657993488   -2.09632611729347   15.24357968950077
C         2.06205158035742   -3.12971419717240   16.16642647530492
H         1.39751321708953   -3.96806613080723   16.01024530557936
C         2.88192833642865   -3.11060513923668   17.28921419144223
C         3.74956941567266   -2.04205824379076   17.47879269435318
H         4.39143999865481   -2.02357941663925   18.34689039035596
C         3.79557349756311   -1.00819115868533   16.55923392709610
H         4.46947152312585   -0.17906657981310   16.70980457117935
C         2.97847619563877   -1.03586931218951   15.44465922076833
H         3.01316293245248   -0.21860979715607   14.72167566877746
C         2.85492192908026   -4.24778636441684   18.25629260905595
H         3.18572633684665   -3.94849404816005   19.24959826819099
H         1.87544193557016   -4.72118793962961   18.30903027136224

