48
CSD_code = IXOCAZ | q = 0 | S = 0 | Stoichiometry = C15H26CoNO5 | MND = 6
Co        4.53698462454395    1.84356502743935   14.28204708612310
O         3.39586218386082    0.83729090554622   13.22905776634694
O         3.16520872993376    2.85264822655338   15.05612805032617
O         5.92761236481071    0.80082040963364   13.56895522548784
O         4.64274018208955    3.12919991835452   12.83987902188275
O         4.34036103005815    0.64955469522148   15.67865271780679
N         5.87693986182418    2.87816410649450   15.47883754292993
C         2.13761966665097    0.83528114398706   13.29608934928189
C         1.35928518323875    1.67550743754726   14.09147446514565
C         1.92892514535535    2.63482704203760   14.92425177075222
C         1.42368717767314   -0.16476521304496   12.41185514022500
C         0.99919454740148    3.49854368431617   15.75171089478336
C         6.38165419769720    0.87284496709215   12.39631187906498
C         6.10716711563936    1.88276112130812   11.47064137481569
C         5.25720349354178    2.95158912516340   11.75273336456907
C         7.34822276744176   -0.21575667857296   11.97742563684736
C         5.06764075809925    4.00335873387603   10.67867055178021
C         5.58037744657368    2.32423819579731   16.81205721825389
C         5.28151963206624    0.81994867795801   16.66487734891980
C         7.28889216661397    2.65234833533279   15.16239070138453
C         5.65203162702738    4.32460150127144   15.48189398419196
C         4.75935655381274    0.24937722379279   17.99163607882699
H         0.28650643244441    1.57357811285964   14.06554782059301
H         0.66358939795919    0.33143150784779   11.81353442523124
H         0.93955101108206   -0.91208303775354   13.03648235300978
H         2.14333027647380   -0.65563445960318   11.76315810031871
H         0.13656207449518    3.80488908403429   15.16757011879966
H         0.65023947868773    2.92302855439263   16.60673420429980
H         1.52822880114279    4.37549366139464   16.11425166785275
H         6.56697046002836    1.83067422849811   10.49662304794823
H         8.31571128028246    0.21476856932661   11.72739946188999
H         7.46408676211734   -0.92936899448594   12.78800292153194
H         6.96448494334289   -0.72852007174318   11.09887751618847
H         6.02947036946592    4.39898063335259   10.36027261897682
H         4.44770282468656    4.80976423102054   11.06092975034791
H         4.57974237054593    3.55667721428958    9.81512003910778
H         6.40455012027461    2.52429045766343   17.50996579078650
H         4.66884564945784    2.79937232715579   17.17832353014698
H         6.22323588293553    0.28859175636887   16.41200550855765
H         7.50762425289721    3.02366167872292   14.16198176712357
H         7.92835130591957    3.17732688001171   15.88432615870650
H         7.51508867028650    1.58991413335543   15.19498133688328
H         5.90031840668551    4.73198642766584   14.50371673603710
H         6.27313143997508    4.81077253321793   16.24447679743545
H         4.60390619451550    4.52966657695179   15.68035397882985
H         5.49434797934826    0.38611427662964   18.78168417645941
H         3.83307226012437    0.74888656690877   18.26255935779736
H         4.55476489886877   -0.80941143518858   17.86754364539885

