151
CSD_code = IXOCAA | q = 0 | S = 0 | Stoichiometry = C71H73ClOsP4Si | MND = 6
Os        5.93299793717675    8.69424129618431   21.70638051861453
Cl        4.00757039624289    9.38672125226887   23.08218837130902
Si       13.93326695061290    5.95665597916356   13.32008553937589
P         6.26041757397324   10.97263763748787   21.36975233260057
P         4.24595671536001    8.99763143913554   20.15446661958048
P         5.71452585214307    6.39211649983527   21.84911432664254
P         7.53553427314507    8.34065685252988   23.34080134453631
C         7.33731825954927    8.28359183679394   20.31024718206690
C         8.12402385341617    8.08875587678556   19.40397867838516
C         9.05055709451533    7.80474884796283   18.37680031516993
C         8.64813986255246    7.11872864358509   17.22423277508835
C         9.55835660707299    6.80726933051973   16.23994734997899
C        10.90138018698801    7.17091739915990   16.37660991626945
C        11.30462340038889    7.86874800679910   17.51901583845607
C        10.39337358376302    8.17865385014036   18.50243515122811
C        11.84416073242371    6.81553123654315   15.38869826917097
C        12.65684767107093    6.49189764053499   14.55042951086377
C         7.90585172445414    6.51085424999896   23.45020754881755
C        15.64080421227234    6.47572770611137   14.03141953006866
C        13.81443205621168    4.03823221520218   13.21454770177789
C        13.58607307898464    6.93437102635974   11.69923594297538
C         4.60621130255655   11.69509844657250   20.95855441934052
C         6.78852761196018   12.11622165851966   22.69344076730693
C         6.15596507326658   11.98974521709432   23.92821205361974
C         6.53770089578253   12.77723187125806   24.99712517474009
C         7.55509099088288   13.70523271899864   24.84375514278877
C         8.17933477090802   13.84478378037493   23.61555051901021
C         7.80435785894242   13.05431903615061   22.54329743119522
C         7.33658752821643   11.51367340154473   19.99815372639287
C         8.67068544406266   11.11881245169496   20.07844279337221
C         9.57112322190630   11.47664089255136   19.09449361425761
C         9.14594411200529   12.21342073789167   18.00077093395330
C         7.82182014145272   12.60411396131867   17.90909893983270
C         6.92033496796452   12.26296502314465   18.90374670413140
C         3.84976029296037   10.82094380908042   19.95939877554473
C         4.56444220319075    8.52138180018503   18.42107869583428
C         5.57087679382204    9.19576219056949   17.73469279664821
C         5.89164165272682    8.84553429282458   16.43804528990284
C         5.22381530658089    7.80121814689421   15.81768066179747
C         4.24779514355177    7.10270751715622   16.50729454995229
C         3.92253386850299    7.45338005027005   17.80552459523794
C         2.57703808258366    8.29042939353665   20.37461515779394
C         2.32215083460586    7.35892675090040   21.36920181455412
C         1.05417035677821    6.82881043108937   21.52786457172800
C         0.03086355102417    7.22280783306345   20.68400430559931
C         0.28107203961714    8.14181436579771   19.67631534993622
C         1.54634459121301    8.67351561483479   19.51856714916211
C         7.43828261823796    5.79032350361871   22.19368608320754
C         5.23292509048092    5.40908423420821   20.39078915770472
C         3.97998218140649    4.80614719880303   20.30814615231940
C         3.61689076602505    4.10142614254117   19.17523937597140
C         4.49696287183848    3.98915443134098   18.11203615323982
C         5.73896274514369    4.59732949416158   18.18226558593499
C         6.10369973084683    5.30936245168947   19.30966776533336
C         4.90416016690112    5.46279822130460   23.20691977101951
C         4.89043224069326    4.06940362053112   23.20344564062620
C         4.35725384089760    3.38010593050566   24.27527345326245
C         3.84341064662610    4.06976809054382   25.36352125044305
C         3.86269997673396    5.45316791064514   25.37587659423750
C         4.39160426928170    6.14750457014773   24.30137590818806
C         9.18467262210974    9.06868959753548   23.05812985205324
C         9.46823377238694   10.31453013783559   23.61398858972252
C        10.68174383917814   10.92888864192294   23.37009612358632
C        11.62907733209961   10.30277770413411   22.57586697593449
C        11.35224083133470    9.06539308165641   22.01833653770856
C        10.13047174057792    8.45502271089603   22.24372397795345
C         7.40908533165866    8.65388382442703   25.14309423329837
C         6.21635438283659    9.05876275107991   25.72507372049700
C         6.13652036541023    9.24868358586212   27.09448516666676
C         7.24486635280866    9.03004210522185   27.89219274017575
C         8.43677378105873    8.61433238245932   27.31780139929000
C         8.52065372153051    8.42512436266588   25.95271692903215
C        15.70658165839102    7.98861896938732   14.22007111179171
C        15.91992567693466    5.78445461737575   15.36258497611576
C        14.62551220279399    3.44487058788154   12.06546274963801
C        12.36915598261685    3.55377402491631   13.14403969450066
C        12.27989597538436    6.50739209564367   11.03728153039908
C        14.73054283541337    6.86894384429620   10.69011578581591
H         7.61056524065897    6.83610353666841   17.11731832076340
H         9.24484019734092    6.27197253007106   15.35420257377842
H        12.34264204025177    8.15416423778993   17.62263579730482
H        10.70464770829607    8.70940417130644   19.38976446095782
H         7.34069860697658    6.14043573414804   24.31486261194193
H         8.97069157212168    6.35240433861081   23.64356055124848
H        16.43697130792993    6.18969224169479   13.33603383146677
H        14.23253953377662    3.64594377941916   14.14778383280713
H        13.46724555944499    7.98324822369301   11.99323421946951
H         4.06636536474657   11.73047748123244   21.91044416427047
H         4.71958916492010   12.72547469185648   20.60597800454748
H         5.36422237226721   11.26498741021214   24.04684837427190
H         6.04568464887719   12.66244298891178   25.95200014105909
H         7.86057063494944   14.31854114675627   25.67904478718707
H         8.96836231750199   14.57266738550901   23.49036629571781
H         8.30675022655693   13.16789062597285   21.59389927246317
H         8.98810621091922   10.53392893924076   20.92867666650731
H        10.60635363766402   11.18107680900580   19.17626993475724
H         9.84503804601149   12.48362081090603   17.22312426659174
H         7.48498601680174   13.18149158976412   17.05977846750265
H         5.89543728789672   12.59081215921782   18.80980516275635
H         2.77160318259947   10.95130749788573   20.09405672722836
H         4.10694129484537   11.09260004457890   18.93075964685899
H         6.11317782418526    9.99006011452978   18.22810376709665
H         6.67222655921454    9.37950029983089   15.91553366817117
H         5.47404932514500    7.52497030766308   14.80362245152098
H         3.73583899274796    6.27683715448182   16.03470702046851
H         3.16539564712809    6.89418591229527   18.33673017529349
H         3.12049204529895    7.06376098179460   22.03852316435952
H         0.86586801554204    6.11223866975241   22.31480994883535
H        -0.96191907629474    6.81527777262080   20.80776579378866
H        -0.51507400900099    8.44459773702690   19.01117856287845
H         1.74193816435954    9.37721512901364   18.71968459467982
H         7.44719541589644    4.70407724906993   22.32603545129272
H         8.06332788979591    6.05914157639175   21.33904456952057
H         3.28858933433439    4.87486005555327   21.13561199360516
H         2.64260977559412    3.63627293730576   19.12497933327380
H         4.21398884328524    3.43110723799396   17.23140469961982
H         6.42801770271358    4.51589510602076   17.35409311483864
H         7.06127445934410    5.80437931484894   19.35002898232466
H         5.28971584163037    3.52803868409348   22.35585614548336
H         4.34402227188358    2.29946047228809   24.26512189171136
H         3.42944135980314    3.52473393757056   26.19940151522568
H         3.46620751949260    5.99579549645572   26.22139500057696
H         4.39628920426214    7.22789220753064   24.30601035288968
H         8.73438430907835   10.79414223530823   24.24718079461338
H        10.88941298898722   11.89569058045199   23.80488991641988
H        12.58167361531743   10.77796651022970   22.39247934301605
H        12.09413176903679    8.57232514650326   21.40591281960761
H         9.90926769884822    7.50522609557998   21.77966113042917
H         5.34818892945977    9.22813655721751   25.10697815327474
H         5.20405781423172    9.56836987269212   27.53676471321310
H         7.18503982115859    9.18042566906358   28.96044311255751
H         9.30361146226546    8.43813178125145   27.93875584437969
H         9.45422568384787    8.10784857939696   25.50789869804607
H        15.56991320463543    8.50923393186962   13.27576217584247
H        16.67002923266873    8.28463750191611   14.63503847154381
H        14.92553430297417    8.31462914988804   14.90322231626783
H        15.97164342970366    4.70550271361129   15.24103494508448
H        16.86791738920142    6.12293570493791   15.78049425386879
H        15.13118385004036    6.01025797734588   16.07680916046984
H        14.62115556883749    2.35581936500203   12.11677749482232
H        15.65982431680434    3.78091819969971   12.10026042021888
H        14.20002700428109    3.73270158868054   11.10640854341443
H        12.32868752608334    2.46551520729622   13.18852018012135
H        11.79234501954965    3.95459761144076   13.97361397135085
H        11.89692132381817    3.87054309847777   12.21811200532739
H        12.03798770438925    7.16593621427048   10.20311890913304
H        12.35864136143769    5.49445553317205   10.64922150805956
H        11.46003332420414    6.54139069324051   11.75061237985233
H        14.50955546764366    7.49472228242791    9.82507109445320
H        15.66142429389207    7.21901968826478   11.12991069570629
H        14.88168009921563    5.85199274077691   10.33643095748508

