39
CSD_code = IXOCIH | q = 0 | S = 0 | Stoichiometry = C10H14N8O6Zn | MND = 6
Zn        3.76968816218340    6.57064996352120    8.62994805657449
N         4.27282779157940    8.02642705676858   12.48089664930398
C         4.36329883581379    8.11011568630200   11.19209177977202
H         4.84620607145431    8.92929127586471   10.70009322038620
N         3.81201927604878    7.06492943778670   10.52010844415532
C         3.35737147113587    6.27079136656704   11.50477527132622
N         2.74404542291565    5.10499214114215   11.35370915317021
C         2.38830828267235    4.50759670294403   12.51476184234860
H         1.88876399091864    3.55699494326700   12.38576286352554
C         2.61945943870768    5.02340354694510   13.74956799664008
H         2.31060881460979    4.49662320618311   14.63652005748547
C         3.28170554250988    6.28669919582712   13.94970430945391
O         3.53253313243354    6.83759826265174   14.99391414337155
N         3.63199603925382    6.85823801616162   12.70007557144768
O         4.46212937082681    4.57512965753303    9.20411627164200
H         4.21669291697694    3.87276752930496    8.59516477656500
H         3.93767186354193    4.43484284516332   10.01583327833003
O         1.81430227084177    5.66927523834940    8.91127380894235
H         1.87971972053719    5.34242324750231    9.84118036714789
H         1.05910707045546    6.26090512761360    8.86211634114684
N         3.72693994676278    6.07602608589399    6.74003435494352
C         3.17480483124826    5.03099198549062    6.06854239436110
N         3.26763071773089    5.11277258348035    4.77978838620365
N         3.91112660688890    6.27941019903143    4.56012647977743
C         4.18474875165380    6.86800666185736    5.75509759294005
N         4.79988472854294    8.03290312993411    5.90563934784350
C         5.15916619827459    8.62780825042339    4.74440663514098
H         5.66025566781244    9.57768417312292    4.87294925977864
C         4.92955646597292    8.11054961763707    3.50992323455727
H         5.24136566641648    8.63532014413239    2.62281732826684
C         4.26521581411416    6.84826818121552    3.31035813022533
O         4.01552495360499    6.29621815853382    2.26649499506118
H         2.68939629256969    4.21349520495378    6.56087663623716
O         3.07907784619037    8.56619124255143    8.05405939428379
H         3.32402026157244    9.26905812621925    8.66257659646466
H         3.60401924170347    8.70581913976498    7.24258776824289
O         5.72531369358189    7.47136286465137    8.34975447893981
H         5.66132985882660    7.79689217457352    7.41924893263763
H         6.48066697112025    6.88032762913416    8.40120385136560

