147
CSD_code = IXODEF | q = 0 | S = 0 | Stoichiometry = C67H71Cl2N2O3PRu | MND = 5
Ru        8.56859753451590    8.55372504596219   14.80923633192238
P         7.68199088731644   10.05766119192705   13.36267340670297
Cl        6.98270786888043    9.27389855085942   16.34747509921564
Cl        9.21801770191213    6.74290716746924   16.22131141031229
O        11.72800666482350    7.60964883273364   12.60233765120793
O         7.37545363416121    6.23485023516709   13.79113386931546
O        12.35117436503768   11.20514278143891   14.92713912372476
N         9.25470470601459    5.13899460312683   12.79845908562737
N        10.55089745584346    5.55829515677707   12.53435570733408
C         9.44183964946431    7.34769614502865   13.39024961400940
C        10.64145761211586    6.88557149325534   12.86590708807534
C         8.62931180628884    6.22118548633388   13.34886600793678
C        12.97330902128543    6.97864972847730   12.69109915005070
C        13.77758496625718    6.98772649457957   11.54708845138656
C        15.00436912898815    6.34609183927549   11.60571456313512
H        15.64629887136751    6.32812611581377   10.74029194130474
C        15.41720157508344    5.72315953920544   12.76993254614580
H        16.36867816143668    5.21278037317219   12.79669853206319
C        14.63570591670777    5.78444321285534   13.90582789719832
H        14.99014924993642    5.33799750418678   14.82168708006160
C        13.40226609220067    6.42621145162777   13.89844460498592
C        11.37447560080908    4.79665456547475   11.66678924376752
C        11.29447800976783    5.01036873026461   10.29610756312205
H        10.61228780518623    5.75342964142752    9.90910126155696
C        12.09078008678694    4.26833729884853    9.44288263928697
H        12.02767344628106    4.42960693113195    8.37714269037749
C        12.96023335397971    3.31975403873536    9.95453326065513
H        13.58557141671197    2.74704715261365    9.28657708363994
C        13.02463736144620    3.09974413364362   11.32037189649518
H        13.69691028101687    2.35563356140196   11.71835318783289
C        12.22627292094504    3.82935717651804   12.18127063015484
H        12.26786804371630    3.66239114996315   13.24579323065301
C         9.06176378879091    3.79560310087325   13.24540723140494
C         8.71171617220181    2.79819153276412   12.34908260603072
H         8.56804536798995    3.02912184564387   11.30516287865579
C         8.53716867461565    1.50774451483055   12.81594363978062
H         8.25303043049391    0.72595526083153   12.12825280502066
C         8.72829127008596    1.21914483849748   14.15696105424435
H         8.59090439599657    0.20905946776249   14.51289752139103
C         9.09661735786176    2.21991127156934   15.04104989327853
H         9.25633913000148    1.99533294241505   16.08447627228617
C         9.26539808716546    3.51671204680508   14.59097047757786
H         9.53623274085792    4.31656856900118   15.26850173342880
C         6.53077678809316    5.18859169745890   13.40609308333805
C         6.16863373419239    5.06898136912564   12.06438742041492
C         5.37777381981187    3.98336945668544   11.70896128914606
H         5.09510599552438    3.84556136746473   10.67647633672122
C         4.93738109644001    3.08686432699788   12.66226677457299
H         4.32952587169409    2.24448879560614   12.36644596171672
C         5.23647911328012    3.28231008188866   13.99821623283873
H         4.84192514898348    2.59966644118389   14.73248856497907
C         6.03777226738092    4.34095820520708   14.40170553835270
C        13.30007305303057    7.74433748901618   10.33115072059549
H        12.22487442467835    7.56085000029801   10.22803188565536
C        13.49792654020531    9.24398646341449   10.58100168462831
H        12.93813601102720    9.55488538280567   11.45882330228594
H        13.15477120067494    9.82121313005769    9.72484302437477
H        14.55200844797834    9.46052912572156   10.74284375997168
C        13.98548506410844    7.32375255168150    9.03448549483590
H        15.02488597602754    7.64250987619818    9.02270795778678
H        13.48508556518695    7.78944924199705    8.18774818878735
H        13.94539335696249    6.24387562223093    8.90869246915459
C        12.62486865422610    6.59467865527451   15.18004792881848
H        11.63620146864361    7.01199499203712   14.96910247482762
C        13.35434381057114    7.61150504705457   16.06345444138783
H        14.34077279602161    7.24726252132677   16.34454526559431
H        12.77302740386078    7.79195603062238   16.96373455187228
H        13.46793650569124    8.55492243594558   15.53503315132123
C        12.42457811095063    5.28171109973183   15.93609576583989
H        12.05030628248436    4.50201298899833   15.27501755650101
H        11.68890416400350    5.44134094474323   16.71963872582735
H        13.35095325556624    4.93602579880984   16.38918851614390
C         6.54310364339391    6.11718202638910   11.03999404226495
H         7.11945507595285    6.91397793309783   11.52401572048337
C         7.39650031133707    5.54256763540076    9.90918513586019
H         8.30873695646983    5.09963769526244   10.30261685437591
H         7.66918180456433    6.33694665387421    9.21700151976649
H         6.85106067619428    4.77826814802917    9.36037906876928
C         5.26983140134913    6.75249645750969   10.47387508360335
H         4.66605127174801    6.01490648733791    9.95105179186698
H         5.53324869986961    7.54321448379658    9.77600418076384
H         4.67182482097231    7.18434517038031   11.27298280761520
C         6.33747251119900    4.64302293537745   15.84704111968894
H         7.37444796118217    4.98503945950337   15.92932032561782
C         6.15668751549787    3.44142280752968   16.76956744363645
H         5.10373706825708    3.19523452448183   16.89336019490515
H         6.56267588685875    3.67958731491545   17.74958789775771
H         6.68199646506840    2.57071016867846   16.38119124540765
C         5.44617226921679    5.80485921018435   16.30466462675728
H         5.70246219865641    6.72041412222437   15.77580219442372
H         5.59714479936537    5.98613876787276   17.36579336801781
H         4.39411179600143    5.58215318153876   16.12994193035123
C        10.09765112815910    9.68768714592523   15.00563068141808
H        10.50599927106872   10.21995082950818   14.13761628333128
C        10.76987463433442   10.01330012268017   16.21043140199225
C        11.93058755945706   10.84254721181992   16.16845269201322
C        12.56774724243877   11.19560030917443   17.34839485146572
H        13.45240717601934   11.81450028694799   17.33357633008212
C        12.08663728585416   10.75300720022023   18.57061258335111
H        12.60436702299377   11.03745379070380   19.47537091139161
C        10.94812665004727    9.96512627589568   18.63315328917744
H        10.56759563695461    9.63862495877519   19.58912147691017
C        10.30118489714243    9.60548771598399   17.47232343207956
H         9.39709605008226    9.01701575520595   17.52299284133093
C        13.27512858895749   12.26787027010509   14.75196184334505
H        14.16597642250857   12.10147982919596   15.37621284126561
C        13.68656919893838   12.22033687359713   13.28361823641277
H        14.13605851883071   11.25754920796809   13.05480581511063
H        14.40273317580081   13.00849556139984   13.06923941722682
H        12.80922193447194   12.35168174481053   12.65545675016268
C        12.63309116726153   13.61013335571549   15.10184120259304
H        11.76476307898280   13.77278582540047   14.46692547433908
H        13.34604024953961   14.41612129138480   14.94967988178364
H        12.30386295760664   13.61994753792014   16.13825262696369
C         7.94296071577658    9.81439134502160   11.57085375824032
C         9.24165476441576    9.53502674187176   11.15067401721445
H        10.02931416315217    9.47875746688608   11.88883175195625
C         9.51070923394909    9.32885759342874    9.81104049089738
H        10.52053679105419    9.11768215798634    9.49008574672797
C         8.48857502721227    9.40151989683550    8.87672809112229
H         8.69824548315288    9.24054773230546    7.82861124652927
C         7.19830835186561    9.68871119634062    9.28839629500298
H         6.40254734723499    9.75986813645352    8.55976723942171
C         6.92245540516857    9.89297455090963   10.63038694374483
H         5.91295407887740   10.11721156574938   10.94545759055854
C         8.21581327630126   11.78761570157959   13.58002985674871
C         8.53979309131408   12.63708652449085   12.52882667514838
H         8.46228867643550   12.29207537955647   11.50713344400268
C         8.96639354832912   13.92799213479708   12.79209748566973
H         9.21988381184514   14.58594725134720   11.97259577980096
C         9.07118319989802   14.37638373156653   14.09812453391799
H         9.40678731482945   15.38435800593682   14.29715256901429
C         8.74667173063716   13.53159079578771   15.14916656288840
H         8.83087345561598   13.87873782480186   16.16849761914839
C         8.32346231231158   12.24174364698206   14.89333409413892
H         8.07496505996355   11.56951458902964   15.70596767610711
C         5.86693699687263   10.18310382754265   13.45560839950139
C         5.17535873516883    8.97806723920020   13.55013796849175
H         5.73603973574130    8.05004319023533   13.56705670472033
C         3.79789907164809    8.96759681781893   13.64453087288767
H         3.26694135285293    8.02949643982454   13.72792321131760
C         3.10076018876717   10.16599116569974   13.64812811695645
H         2.02357163160340   10.16271267147918   13.73097567858721
C         3.78422890534920   11.36707499917061   13.55913578158366
H         3.23879166839514   12.29988947065156   13.57196336544018
C         5.16540734421780   11.38187701069689   13.46339335462238
H         5.69894000889556   12.32040105416303   13.40455363133265

