59
CSD_code = IXOFUY | q = 0 | S = 0 | Stoichiometry = C28H22N2O6Zn | MND = 5
Zn        1.67346875279402   18.62782241067517    9.61962095791898
O         2.23263688897717   16.91006880346233   10.69668467087178
N        -0.32557357491622   17.92696179076898    9.66701682437760
O         1.38830486386365   20.17217363808078    8.32827009415705
N         1.02447043526299   19.33444840066932   11.51499954712089
C        -0.05703082813726   18.65171699804210   11.91095901870005
O         2.13621039596477   16.97935255129833    8.51842180673968
C        -0.78327755125013   17.90891266591217   10.92384539216700
C         2.57306568799437   20.48601213302690    8.56015783680824
O        -2.87260764767314   13.07912286634946   10.67311477618255
C        -0.49125533789640   18.62953934715417   13.25375238059110
C        -0.82561395168734   14.04442449372576   11.37173693062896
H        -1.25010837932835   14.15720289674429   12.35706384979468
C         1.00445058238415   14.31221328846830    9.82328059203587
C         3.22923822381985   21.60352342373850    7.76731344597485
H         3.98172604914040   22.08270207985588    8.39582129999319
H         2.47124115237685   22.32481065544822    7.46528613539107
C        -2.60883863081762   16.47756092298599   10.29138761607355
H        -3.49238083148127   15.90840140524625   10.54132970584130
C         2.27330824560643   16.34758197861710    9.58600174251725
C        -1.65011245771354   17.87654637456912   13.60198557802769
H        -1.96036314542364   17.86993403276919   14.63678159852373
C        -1.06392589220656   13.31158965709484    9.09823833063383
H        -1.65887237357353   12.85824628680489    8.31553072266802
C        -1.93214798702179   17.18240791031583   11.30119277140326
C        -1.59715330843181   13.46354429141724   10.37022831069183
C        -2.34328498540068   17.18528089307733   12.66504048833911
H        -3.21969122211188   16.61347257405446   12.93253141705016
C         0.45994511108772   14.46076203470734   11.09554162654895
H         1.05345923269765   14.92554128389067   11.86811630722340
C         5.46463524675163   19.42478938118894    5.63021471561262
H         6.23003154281556   18.67215636575439    5.77077832447395
C         3.87860453206545   20.97989767401169    6.55923590708500
C         1.37508858005815   20.04672597118800   13.75717727483518
H         1.98183049340396   20.61152683227454   14.44735343186876
C         2.38641246485161   14.82595792790286    9.53618504912845
H         3.08669226037813   14.50069108360142   10.30526283107873
H         2.72760085516750   14.51735828385773    8.54989184760202
C        -2.12602602350351   16.52370997338588    9.00613611672518
H        -2.62102098812537   15.99816125039068    8.20506635494069
C         4.86728533675509   20.01847691113908    6.72510482779138
H         5.15478287576687   19.72383676924201    7.72318533429717
C         0.22397336072121   13.74093776947266    8.82906933542642
H         0.62398920129616   13.62612339341138    7.83270090064119
C         0.26606568230501   19.35899516774905   14.18631574796582
H        -0.02990421302405   19.36514488187994   15.22577698327523
C        -0.96599365363678   17.25838258893096    8.73881647477085
H        -0.54199951963671   17.30668557673874    7.74671890917893
O         3.24491696786324   19.87759278572717    9.42538920906125
C         1.72140739943162   20.00290977538229   12.40164365067138
H         2.59200864895426   20.52096346377903   12.02576970992514
C         5.08098624533514   19.78674996610798    4.34435940080960
O         5.64841059589299   19.22910995685357    3.23573074916110
C         4.09003080997370   20.74537270632977    4.17041155398646
H         3.79765326390440   21.01517941544629    3.16789731690463
C         3.49414870844022   21.32917926940865    5.27200696841831
H         2.71922089367321   22.06719559973312    5.12520970934712
H         6.29985151501656   18.57123857161550    3.50664964415128
H        -3.26507059978627   12.63807259851567    9.90998994591551

