83
CSD_code = IXOFIM | q = 0 | S = 0 | Stoichiometry = C36H34N4O8Zn | MND = 6
Zn        1.59349335665723    7.74049824199316   18.03695479202007
O         0.32659527192835    9.18369517667753   17.42560483546060
O        -0.01044555486074    6.32434282908627   17.94653153104169
H         0.45402876641072    5.58346877846360   18.45941184319810
O         1.75293318612874   10.75431978371348   16.75911858546324
O         0.04380057025069    9.29060409449395   10.68676852566229
H         0.75034089372385    9.78389014170478   10.25301165605195
N         2.01231387962120    7.26435897818499   16.02901952263373
N         3.00338053987507    4.95636168232488    9.44284510883147
C         0.62633783133168   10.24422375918539   16.82307177637921
C         2.40214006872457    6.36493911346253   13.41582422004581
C        -0.40242968601214   10.53129750036784   14.63002073654535
C         2.60530574376411    5.87758502446756   12.04507281316279
C        -0.52404152522977   10.93939310504335   16.06735170276507
H        -1.47769198960240   10.62246425664201   16.48695753641207
H        -0.40147940959101   12.01762196287661   16.17176604405784
C         1.16123027993381    6.82782246741265   13.84841865952740
H         0.31144836841426    6.83307311447751   13.18504777250785
C         3.19893065912017    6.82400658779073   15.62857857245420
H         3.97618627022958    6.81316745064746   16.37846084343802
C        -1.27887231525793    9.61750961371414   14.05785088913224
H        -2.09458336437873    9.21897370270077   14.64338267855989
C         3.44214683456739    6.37319763242758   14.34580119337198
H         4.43155070104614    6.04335054630128   14.06880876537645
C         1.01659406924477    7.26253352815000   15.15250012620200
H         0.06828479048206    7.62214595392617   15.51760948419219
C         2.18699446632565    5.96551419337985    9.69275903646900
H         1.69805178692117    6.39665543906113    8.82916597682832
C        -1.12965184524628    9.21477280164837   12.74437422794039
H        -1.81581962063463    8.51493225497612   12.29277748149199
C         0.80188988458415   10.62740748593326   12.54414937886612
H         1.61694578077402   11.02187294328079   11.95062206735727
C        -0.08610454559472    9.72140443813879   11.97960308914474
C         0.64114443593941   11.02615342238194   13.85682425263424
H         1.33983683529340   11.72030192207004   14.29785286908596
C         1.94800573207278    6.46254796123439   10.96358842466136
H         1.27559359765668    7.29299749307377   11.10404210357778
C         3.46143086552817    4.80914425522504   11.77887727195953
H         3.97402988120226    4.29840992003599   12.57926232760552
C         3.61889533249363    4.39227491061077   10.46746723935024
H         4.27183962918050    3.56483847474053   10.22216706455699
H        -0.81159218017881    6.52416237247556   18.43548698038954
O         2.86033764036114    6.29731344022477   18.64845973570328
O         3.19735058672006    9.15672213799145   18.12714666311411
H         2.73283142036364    9.89756639173858   17.61423306689571
O         1.43389177949560    4.72663908680491   19.31460060690196
O         3.14242226819611    6.19169812422058   25.38723678847489
H         2.43562314265492    5.69875733302717   25.82096296192722
N         1.17483930101523    8.21679363609050   20.04487575590291
N         0.18623334053387   10.52867819259276   26.63006136085677
C         2.56046917266129    5.23679879394213   19.25096923695275
C         0.78579473150185    9.11748981277255   22.65775243820478
C         3.58888853527211    4.95017417119059   21.44426644250960
C         0.58314148895186    9.60568242368300   24.02828184016173
C         3.71066713905713    4.54171779811804   20.00704854225127
H         4.66442455192778    4.85843434154893   19.58751857584680
H         3.58800402845833    3.46347391120214   19.90288549212574
C         2.02653807122674    8.65426439997972   22.22504795904846
H         2.87650509383566    8.64929431662217   22.88818170421953
C        -0.01163981958083    8.65740324671167   20.44543995596409
H        -0.78911678482588    8.66790376349624   19.69578208566731
C         4.46555291969834    5.86374933762905   22.01643570727509
H         5.28151507584683    6.26189080196838   21.43098495975464
C        -0.25447338661955    9.10883956941313   21.72807133971831
H        -1.24377978525780    9.43888675603751   22.00517382780467
C         2.17078834094051    8.21892735779065   20.92113573026582
H         3.11896698692634    7.85905353089978   20.55594772207123
C         1.00235183185975    9.51922511186402   26.38049013200117
H         1.49162231142133    9.08861709150120   27.24416358806775
C         4.31625065611549    6.26675486666309   23.32982122012859
H         5.00258191876379    6.96643809710031   23.78141427500202
C         2.38417080129767    4.85484672926925   23.52994909941964
H         1.56887456856306    4.46076879070996   24.12340401848166
C         3.27239645633967    5.76062020064917   24.09450205911222
C         2.54499871806076    4.45582723688125   22.21736603144094
H         1.84616246976447    3.76181655405561   21.77634508221467
C         1.24076742331466    9.02131993258777   25.10989388250397
H         1.91299605665692    8.19066859804401   24.96973860460705
C        -0.27274269001044   10.67440679984565   24.29411700271620
H        -0.78562288049325   11.18466196443739   23.49360569851354
C        -0.42962174694242   11.09216629475824   25.60531443432333
H        -1.08237836896325   11.91983473455345   25.85033389610289
H         3.99852836199187    8.95693900686999   17.63823046933295

