87
CSD_code = IXOGIL | q = 0 | S = 0 | Stoichiometry = C42H30F8FeN6 | MND = 6
Fe        7.52253688639237   13.41588396125166    5.03565840826256
F        10.55228273780374   11.24221461403484    5.73100930421369
F        10.22024439934907   15.09622727137842    3.03413928280939
F         4.32328887793445   12.07260900093049    7.89385282354866
F         6.20813103360357   16.17180346760736    6.44994189101672
F         7.92929742731003   14.16207537334449    1.37717480769107
F         4.51984336975914   15.61159576742659    4.29468324078159
F         6.88373909975031   11.76263078061396    9.16834059906143
F         8.13070563302535   10.10866665034159    4.90807476264018
N         6.63956140276467   12.24862228069189    3.96015879781845
N         5.64709688324045   13.48965735420755    5.87534529020151
N         8.99191057372646   12.80596767827919    4.02467167075368
N         8.47237297113967   14.63489361770188    5.99002093336487
N         8.03885699265958   12.28071288462870    6.67173989038401
N         7.20364315805850   14.92462515153567    3.95151444572054
C         8.71181268491877   12.02723631318763    3.01190362841342
C         7.31995203252360   11.70955744214352    2.92561726953723
C         6.68090444936074   10.89865636040143    1.99178261377050
C         5.32214462538355   10.64600835553174    2.15046359857609
C         4.62773448377136   11.21015299134744    3.20479151567647
C         5.30748097665482   12.03548300358146    4.10973035833321
C         4.76357739971825   12.77654837587590    5.18678550732487
C         9.72922878936360   11.46521267782407    2.07597574944984
C         3.28151588700392   12.87155333203344    5.39310422047169
C        10.27349826189289   13.17304830850673    4.40019954160757
C        11.01929604255414   12.43616123896393    5.32585825414757
C        12.22573073870386   12.87773653057336    5.83382051178298
C        12.73928167005174   14.09131136145120    5.41400929033864
C        12.05732579157157   14.83801844029696    4.46825771986132
C        10.85646365673049   14.37071833951399    3.97555788015815
C         5.33933439717234   14.06032515448075    7.07691976553721
C         4.72480462286942   13.34644262217342    8.12544402215868
C         4.53994419476982   13.85884405769174    9.38860651077485
C         4.95617129327980   15.14901652510836    9.67493231279878
C         5.53600872454307   15.91065712623563    8.67300258933695
C         5.70631628034946   15.37206141485648    7.41818194169385
C         7.87277900940064   16.00602159388232    4.25703738934678
C         8.66280857751110   15.85327435350068    5.43948971023628
C         9.47608649849775   16.79984677640924    6.05652185365794
C        10.08508576366286   16.46782980834004    7.26235939689976
C         9.89619028128437   15.21475442338872    7.81570604750745
C         9.08513663018412   14.28675939195845    7.14994535188472
C         8.84674589238707   12.93495795135633    7.49774952100807
C         7.78208591234473   17.29202091871785    3.50543175773939
C         9.60481872946469   12.27479490778807    8.61024286316677
C         6.27996467079152   14.83809646108539    2.92319693671980
C         6.62568663036261   14.36656670130557    1.65326502944181
C         5.69500782520445   14.11110627968697    0.66748408111632
C         4.35422411022389   14.34291992102251    0.92374001795237
C         3.96570072863738   14.85106286108435    2.14992831530055
C         4.91915620506944   15.09461125503496    3.11952395139001
C         7.51426880574621   11.06014004672733    6.98661724616447
C         6.87794600409179   10.79743196123923    8.21656082426547
C         6.21651349916408    9.62396853047682    8.49552306187315
C         6.16674413578443    8.61948017377344    7.54249075363453
C         6.80429036312137    8.80841109653263    6.32673209959224
C         7.45976081517727    9.99221839003772    6.07648420383487
H         7.23310895823776   10.46793361393797    1.17298452985532
H         4.80978138994685   10.00515329106303    1.44866765565413
H         3.57696420365430   11.01129691020284    3.33899714606756
H         9.74278227754422   10.37907828906103    2.15693785971872
H         9.47801718978497   11.73376047752524    1.05116463980632
H        10.71968338404561   11.84949494986021    2.30768717106910
H         3.04034493731937   13.74598719391061    5.99408130479206
H         2.90429163507610   11.98546017026272    5.90336480536153
H         2.77591967252994   12.95353772427463    4.43250839785509
H        12.74779425920993   12.26307111342723    6.54966003016358
H        13.67485945768729   14.44931839926412    5.81180248204782
H        12.44508734494709   15.77586894678384    4.10481911295145
H         4.08059230778629   13.23655258725379   10.13973566039767
H         4.82209255146426   15.55772699973331   10.66276723538853
H         5.84764935132698   16.92801948979565    8.84939790808631
H         9.61750278480457   17.77148114107047    5.61290020052624
H        10.70511568203079   17.19274653061471    7.76811342062138
H        10.35734569241915   14.95399659182994    8.75432381158407
H         7.36451501011409   18.06518084219100    4.14914095146576
H         7.14859290301019   17.18179759313963    2.62854845961177
H         8.77467476755894   17.60518335683323    3.18590338222916
H        10.64103406496542   12.60840126403624    8.60453552281216
H         9.17003527154147   12.52646973399794    9.57742557711066
H         9.58205640122823   11.19342474092680    8.49142233878947
H         6.02954117099034   13.73819269356635   -0.28699631987501
H         3.61688749535060   14.14017094176206    0.16416709223255
H         2.93170686780222   15.06556535106949    2.36821502586387
H         5.73685754836247    9.51321467516522    9.45475459091181
H         5.64587066767210    7.69905451487285    7.74828690562304
H         6.81125521377021    8.03955024346658    5.57038173852868

