87
CSD_code = IXOGOR | q = 0 | S = 0 | Stoichiometry = C42H30F8FeN6 | MND = 6
Fe        5.47096549907403    4.01683473105614    4.21544984424426
F         3.08373313623334    2.36507984921063    1.46012400353283
F         0.61180946629804   -0.37936123864842    4.35434182326521
F         8.02029974241240    5.65226798764532    6.75259050110014
F         4.91739383496429    6.90245843979621   10.04429514473644
F         7.22443015199683    0.37863593485285    5.29722907295459
F        11.38718430015781    1.21802304350439    3.29971579988653
F         3.18232343788371    7.52241564806741    3.56500649435826
F         4.67250954622039    8.24223862262997   -0.82556396787217
N         6.64624217975611    4.34661924930635    2.88574803479376
N         5.23490604839063    2.39352210206508    3.22475878910933
N         6.06521226851512    5.74836594120385    4.78432643460019
N         4.29772038638195    3.69038399401332    5.56134170106241
N         6.67906091063238    3.10879358953069    5.44721393290362
N         3.87088183871405    4.81708631912258    3.41654229689045
C         6.04877422824522    2.25092615803214    2.19056062512233
C         6.91279679987055    3.36461390989388    1.98906125507867
C         7.85088581261642    3.58503821407813    0.97694507320920
C         8.45454652618606    4.83091933109020    0.88653956247307
C         8.15553343672706    5.83399188804151    1.79793613925180
C         7.25020747853601    5.55817867339809    2.82561737550660
C         6.91569705202947    6.34396365966973    3.96637443583747
C         6.00619907881034    1.06976873166756    1.27444935641553
C         7.53513716025960    7.67396529863501    4.25490031061807
H         6.93525949063957    8.21974852676287    4.98062062560529
H         7.60927363962468    8.25968815267004    3.34155916467099
H         8.53980948244701    7.55097971675797    4.66261372076088
C         4.12161179689091    1.60080029435334    3.44767243134844
C         3.01234779733773    1.64015221394975    2.59725898541705
C         1.82995366407740    0.98902473325179    2.88158952305437
C         1.76152761857741    0.25648560683494    4.05254341810076
C         2.84010511608937    0.15999245210945    4.91348221246384
C         4.00806014870795    0.82725967924238    4.60555732469806
C         5.80872948848914    6.16509188416772    6.08005919722968
C         6.77175600162477    6.04453253556395    7.08628614938377
C         6.49565834718071    6.28327661035130    8.41642300263780
C         5.21155099293358    6.67517809922626    8.74864068480039
C         4.23043734926670    6.84034433701415    7.78778767068421
C         4.53439898664828    6.58796088449815    6.46527690774754
C         6.10796089728523    2.72092899221800    6.57901175589741
C         4.72936422252664    3.05466101468775    6.67523450316794
C         3.84703192750342    2.81187442858717    7.73578734880550
C         2.52656254953723    3.21494587549214    7.61036252283076
C         2.09133727092288    3.85348718105021    6.46017761344699
H         1.06681956241286    4.17058507848745    6.35931921959249
C         3.01273495897550    4.09533572980997    5.43240696895144
C         2.79180339656642    4.73778884649176    4.18447124021709
C         6.86006320145707    2.07429768659820    7.69874624100261
H         7.93139500946643    2.20157142385581    7.55610795114326
H         6.64271073052049    1.00688830582750    7.74909906804740
H         6.57247872081374    2.52310573139465    8.64749942689602
C         1.43295090809184    5.18046839620830    3.74130377757141
C         7.90250258872408    2.64137793787864    5.02461739779498
C         8.16181270649748    1.26875860320644    4.89358890908762
C         9.31298083541161    0.77498128846819    4.32154333800533
C        10.25685825325566    1.68336291265682    3.87310262841036
C        10.06409215992455    3.04744246279399    3.99757607230006
H        10.82230185722601    3.72890897770856    3.64760760671526
C         8.89972002242309    3.51356312103730    4.57042921528331
C         3.95768884705336    5.64528893867322    2.32323587884122
C         3.66549843840374    7.01616253792601    2.40470826709480
C         3.89674056514916    7.89546695801895    1.37072330379566
H         3.67596943024718    8.94451068663197    1.48176982676141
C         4.42953469709567    7.39271282578248    0.19577727296024
C         4.71850345577856    6.04757979146498    0.05178608151481
C         4.48010130607603    5.19061366401414    1.10494207643213
H         8.08854191497035    2.80758564704038    0.26963830504447
H         9.16638174832656    5.02212775774916    0.09802286176090
H         8.62688924400922    6.80030209144594    1.72619768318940
H         7.01269277928262    0.79729336447816    0.96604576198051
H         5.42520176650029    1.29586668313575    0.37891719594885
H         5.54515809921257    0.22102708508213    1.77612648195470
H         0.98912249559085    1.05547457595660    2.21069931114677
H         2.75719691791800   -0.42987967697868    5.81165575289418
H         4.85773856623959    0.76315024569926    5.26191705470237
H         7.25846036715464    6.16304317519397    9.16818983299180
H         3.24304047631986    7.15867171976825    8.07976960983951
H         3.78395891383508    6.70983797395934    5.70459967351440
H         4.18938759818298    2.31294268252040    8.62697263893423
H         1.83205653871264    3.02997910658883    8.41574626523465
H         1.13914421175035    6.10304890399455    4.24269028454664
H         0.69725574233155    4.41533258096967    3.98262890752647
H         1.42447366231491    5.35403600819212    2.66704551436504
H         9.46550729615860   -0.28708080054842    4.22050654457069
H         8.74227433908964    4.57004868901751    4.68800252369655
H         5.12415661605826    5.68400315340450   -0.87831395548435
H         4.68301194525067    4.14087383174390    0.99993118139472

