35
CSD_code = IXOJAI | q = 0 | S = 0 | Stoichiometry = C16H13NOPtS3 | MND = 4
Pt        3.70701084761954    0.76300378202369    3.74052406722244
S         4.45519374281579   -0.88196979020189    2.01697519249926
S         1.87782103104589   -0.58006476632809    3.31443792979972
N         5.34724330703311    1.96852610554397    4.09802531074262
C         6.63957302916820    2.01308018112973    3.64613407240719
C         1.59753453503558    1.99574090937351    5.59644732851875
H         0.89439831784421    1.23764286148801    5.28081241540570
C         2.88694018356814    2.00193261428335    5.08324510662414
C         5.07674811666604    2.93226186307432    4.95356382156224
C         3.76482675071770    3.01408819348946    5.53110874845389
S         6.39960931754543    4.00402601288493    5.28401969430411
O         2.31652992150049   -2.35671962839792    1.48500214387098
C         7.38752453961983    3.07732390802388    4.18883336280086
C         7.25475725163413    1.14282133320130    2.74742305648106
H         6.69614216770319    0.32302846675045    2.32718406199133
C         8.71392689093216    3.28377549235607    3.84971860457333
H         9.26526158561124    4.10599176466952    4.27725267146639
C         2.07519971496541    3.94558865638918    6.94175685727407
H         1.74777090560240    4.68640424033795    7.65576661981724
C         1.19879751607014    2.95653088228161    6.51526283539011
H         0.19085096889737    2.93563946356752    6.90403394110130
C         3.36499128658160    3.98049092276783    6.45254733996595
H         4.06302393878816    4.74142732257247    6.77246981858771
C         9.30068639271174    2.40983464803405    2.95616995037101
H        10.33348975088507    2.54888027406606    2.67639604654541
C         8.57541154142642    1.35073062198946    2.41377543093213
H         9.05758623198657    0.68008605725946    1.71932503907236
C         2.85870351469724   -1.38004984180488    2.18228608318044
C         3.12489751565803   -3.03130288131801    0.52450497029502
H         3.98871621009523   -3.47551063039326    1.03472281924968
H         3.49737907177327   -2.30024936988693   -0.20406866121656
C         2.27488251156773   -4.09292550938451   -0.14584022919975
H         2.86913350655719   -4.61999713124252   -0.88628784882621
H         1.42035072014600   -3.63270090365791   -0.63428029698668
H         1.91238716552865   -4.80216612494283    0.59315169572172

