119
CSD_code = IXOLIQ | q = 0 | S = 0 | Stoichiometry = C44H67Cl2N2O2PRu | MND = 5
Ru        8.55741717718269    8.20898637661826    3.77714214026121
Cl        8.13000841360493    9.80463189224826    5.46491673624453
Cl        8.80329545313149    6.70435460362654    1.96727314409268
P        10.82147545818009    7.91895582233614    4.45343354038808
O         7.05007178094791    6.96133960187205    5.79619341194223
O         8.72569758817643    5.67896229305100    4.88955045653792
N         5.70433952821637    7.84504945411375    2.69714953621743
N         6.82720990534047    9.44505754977779    1.77214099457093
C         8.01980562107689    6.80718363222179    4.91792811096224
C         8.10550117983829    4.41785966567133    5.15660724749187
C         7.95424765309240    4.10459401482820    6.64134877455678
C         6.84444934000301    4.94871450979767    7.25730213364911
C         7.14356658988575    6.43749100695786    7.12670040973087
C         6.81117931720270    8.58426964015030    2.79717030610874
C         4.86172537384070    8.21388838491247    1.55973532050212
C         5.68113459128835    9.30193991556999    0.87631011504275
C         5.14563316834169    6.92521573867121    3.62266490017780
C         4.52976750331000    7.41833842253382    4.77774323303282
C         3.88416344785057    6.52699023436905    5.61986209310495
C         3.83397098899944    5.16812581808299    5.34076567881410
C         4.45657022054203    4.70392934594963    4.19246446776441
C         5.10992127765762    5.56398558448391    3.31735278107920
C         4.58034233642763    8.87520300861577    5.10693536406041
C         3.09700231582316    4.22758052282178    6.24833264282877
C         5.74948564909247    5.01964367555922    2.07726485843604
C         7.65387503649303   10.58526414347485    1.55640994802200
C         7.36367287837553   11.76592060063908    2.25382482189960
C         8.05117534734997   12.92165986071438    1.91836447804480
C         9.00230470133843   12.93721090230125    0.90731050786474
C         9.27322265722400   11.75633367160184    0.23463270753700
C         8.60484302835927   10.57574517643332    0.53213305602880
C         6.33417624096173   11.79277115661452    3.33713832991277
C         9.69444953476066   14.21367447100783    0.53286470661436
C         8.89117305518636    9.34348719437719   -0.26867044571498
C        11.20073636810616    7.25586449487550    6.17637272480799
C        10.65829990848490    8.19683857376097    7.25412307486244
C        10.69235884921138    7.52264775622884    8.62376881871727
C        12.11965178689757    7.11860155934288    8.97755175097277
C        12.68742438486393    6.20650646430963    7.89542910601566
C        12.64502721931572    6.88767140645403    6.52655570692166
C        12.04565670496566    6.95839935492919    3.42419437107053
C        12.12236863316409    7.43600036213045    1.97403685552744
C        13.13930667908481    6.60562224660903    1.19416190169423
C        12.76417032160933    5.12918557616416    1.22866072880338
C        12.69636747035020    4.64750664052675    2.67294593915619
C        11.67649720455111    5.47328664577040    3.45045970054877
C        11.46201929888733    9.66751720377546    4.47098852940460
C        10.83120371612005   10.44103953555891    3.30823173547785
C        11.08372265007989   11.93184651220981    3.49965589739594
C        12.58473630502910   12.20461852976190    3.55568479398490
C        13.23859394267467   11.40389406423674    4.67735261077009
C        12.96863338511731    9.90980742150926    4.50221620276768
H         8.76462728612724    3.69292074976199    4.67267144425215
H         7.12439424082796    4.39793357131529    4.66919555015981
H         8.90207588747004    4.29675629551923    7.14996423228876
H         7.72030055686068    3.04445212476410    6.74721525481010
H         5.89800766053658    4.73251408243011    6.75986824160966
H         6.74062834714325    4.71686529557851    8.31846031802129
H         6.40911755257808    7.02328874095264    7.68351989842335
H         8.14277563454733    6.65821872031310    7.51707403232474
H         3.88689677502312    8.56802844305621    1.91531172751942
H         4.69690931940197    7.34858478112188    0.91424835477459
H         6.02220452920367    9.00197349372703   -0.11877374366865
H         5.14831321984288   10.25431188179205    0.78563400994646
H         3.40454807705611    6.90088526575902    6.51345984918170
H         4.42857399884088    3.64688196244188    3.96339782790085
H         5.61302891525841    9.17182674339820    5.29053068000936
H         3.99490718360506    9.08964591686676    5.99679075588494
H         4.19714860714844    9.47847504858103    4.28552782857595
H         3.51178982079480    3.22321201468884    6.19293129448634
H         2.04905266670714    4.17391110413926    5.95166588074680
H         3.13484599809831    4.57119456202706    7.27989644198348
H         5.96360084664821    3.95920632194112    2.19121347526872
H         6.67850517165628    5.54228218361208    1.85509183374774
H         5.08167455402906    5.13043485771105    1.22206600929317
H         7.82977522756057   13.83516427788257    2.45156882241645
H        10.01079134593216   11.75165428651438   -0.55586098281982
H         6.72317490212233   11.28460873785623    4.22165138138896
H         5.42007566038460   11.28608928868427    3.03308052188492
H         6.09383128454068   12.81647605891763    3.61146589562516
H         9.87460478701599   14.83014182916905    1.41137343013802
H         9.06992017936846   14.78530634074319   -0.15495350362314
H        10.64335714005590   14.01289387728105    0.04047655937448
H         8.78268084436505    8.44080926137163    0.33091951108033
H         9.90262952048686    9.37748027263612   -0.66741735606614
H         8.20389151063539    9.27388917780613   -1.11345247004379
H        10.61037670387582    6.32906798142185    6.21041711896979
H         9.63943663419979    8.50938923952209    7.01036833577003
H        11.27741153508461    9.09528458456049    7.30248245537201
H        10.29562567598577    8.20444914158097    9.37882974418105
H        10.06200718938291    6.62859672687195    8.61911010692788
H        12.74025406401002    8.01387770232191    9.05956502297516
H        12.13895266221398    6.60935857762305    9.94382538588913
H        12.10541677334789    5.28165344113763    7.85756452856813
H        13.71899606030617    5.93904892108082    8.13682959888847
H        13.07411871047174    6.20820738337021    5.79088674526454
H        13.26508643750376    7.78431043501946    6.56695594663975
H        13.02990266435542    7.10861991483561    3.88790539928426
H        11.14224530949985    7.33387456355395    1.50612517538582
H        12.42054250338174    8.48490452759513    1.92959113048916
H        13.17964667874677    6.95674129141290    0.16045565591390
H        14.13396391195936    6.73878991193346    1.63137553080811
H        11.78593098695191    4.99848725695894    0.76260998931541
H        13.49381848795945    4.54141133704126    0.66651010433972
H        13.68276285520660    4.74407797935557    3.13742678973851
H        12.41523045965005    3.59233635899546    2.70327086914110
H        11.61269691682669    5.10881978135658    4.47761723465820
H        10.69386461105897    5.35368511513041    2.99273165595920
H        11.02117282094826   10.08371524570541    5.38869278131149
H         9.73846118198051   10.24638566365445    3.27676966522409
H        11.24893739096203   10.12497410106369    2.34971574480434
H        10.63687643991341   12.49349998018702    2.68033317658275
H        10.61159125588188   12.25826063575810    4.42894540360329
H        13.03716160562086   11.92548804728392    2.60030919453076
H        12.76254684094681   13.27124950407448    3.70896267352501
H        12.83399816834837   11.73360510279059    5.63747829657587
H        14.31621669326373   11.58584767378494    4.68759886107237
H        13.42752365665191    9.57046254830283    3.57167052911192
H        13.43321767401931    9.36218951418339    5.32276918554619

