115
CSD_code = IXOPUH | q = 0 | S = 0 | Stoichiometry = C50H54Cl4N4O2Ru | MND = 6
Ru        4.01479910304677    2.52624280515073    2.41929982699257
Cl       -0.87667188867002   -1.32409755562035    0.65050812758377
Cl        2.96283066593689   -2.89621969125675    4.05951682857511
Cl        2.19835908308578    1.31268160121523    7.82878674624902
Cl        6.91678297283219    3.78293529438521    8.53537410265117
O         2.95944829875907    4.18288953689669    1.85666580474011
O         5.62777197737113    3.39003060231696    1.63902517516431
N         2.17784348541720    2.00349183088985    3.02064417697181
N         3.56889321995995    1.45580248091725    0.79554247050770
N         5.04084688931062    0.87520520775416    2.80680542505262
N         4.58217401910304    3.60606435055081    3.98615082514183
C         1.77701555726614    4.24148826477957    2.38366578140854
C         0.90116290608370    5.35181015327754    2.27387121510611
C        -0.36857818673781    5.23470016642571    2.80534000525559
H        -1.02490618401170    6.08257379347672    2.73850027865372
C        -0.85039806343787    4.07596410390442    3.42574441591044
C        -0.01007614609117    2.98166416112336    3.50444220305210
H        -0.32363409360758    2.06309393703113    3.97875176649205
C         1.28544299331147    3.05019356824069    3.00026679640016
C        -2.25373822513208    3.97402303137271    4.00460068959670
C        -3.00365433461110    2.83733409145162    3.29424177759395
H        -4.01711064801118    2.75594659341655    3.68166972885829
H        -2.50628253001184    1.88249654788512    3.44060078756758
H        -3.05799182584489    3.03371299330275    2.22525149530866
C        -3.06721882426301    5.25951401528994    3.83181054555671
H        -2.59276588897446    6.09472700063034    4.34142978515798
H        -4.05648407392473    5.12154474722107    4.26395533081355
H        -3.19287915072388    5.50615744437501    2.78006541974844
C        -2.15472121937417    3.67036492292207    5.50618383615381
H        -1.60591067806903    4.46123165540611    6.01299758422727
H        -1.64010624243929    2.73094185906308    5.68683712803965
H        -3.14912680137615    3.60405824217383    5.94290508698234
C         1.38644169817145    6.61781698163003    1.58173176368641
C         0.33487572533649    7.73074040156160    1.56405916487327
H        -0.55729090858026    7.42266767755480    1.02343148368744
H         0.74697328900365    8.60330675256043    1.06072053157144
H         0.05825613663277    8.02630720349222    2.57349339288805
C         2.63166843410227    7.14070186082701    2.30811175438192
H         2.39589373875821    7.37073008902683    3.34563254604188
H         2.99730267761838    8.04394733934153    1.82338288037325
H         3.42273210176440    6.39763739206630    2.28930682419179
C         1.75113938901216    6.27494493878081    0.13018062032456
H         2.55531404435608    5.54539084963767    0.11108494108718
H         2.08245004198431    7.16862484536192   -0.39506902865025
H         0.88745907606155    5.86574922687781   -0.39164014734164
C         1.72629113769908    0.71447595394083    2.89037858207066
C         0.67139821774576    0.38463077932348    2.02051433818555
H         0.13543115857087    1.17057881570342    1.51052195255398
C         0.37052061497612   -0.93823011895674    1.78147805972199
C         1.06400842408093   -1.97457585747963    2.39238750277339
H         0.82445138263993   -3.00326082611341    2.18313859704840
C         2.06994256335142   -1.63749416311145    3.28458424911320
C         2.40045622743420   -0.32503596390239    3.55051837005607
H         3.16922103980033   -0.08793172998764    4.26977898569443
C         2.75763096591267    1.86282738370056   -0.17739347224722
H         2.49330267874702    2.91400251103925   -0.16465539230251
C         2.26573407979222    1.00902413716997   -1.14454781467007
H         1.60181698138007    1.38097663941472   -1.90785565578136
C         2.62990697541686   -0.33265183446490   -1.10231297782107
H         2.24438907781314   -1.03068347208897   -1.82855558887745
C         3.49105476297339   -0.75604128667015   -0.10973389262478
H         3.78477573322669   -1.79078497066742   -0.04810633636673
C         3.95895854514490    0.16350360310247    0.82963084628999
C         4.86581801171351   -0.14241927047415    1.92423279619016
C         5.54229012002089   -1.35439017961512    2.06040579770844
H         5.37995334427221   -2.14302917055711    1.34445694747455
C         6.42099205001217   -1.53509671148057    3.10836779324081
H         6.94385581373465   -2.46913725346488    3.23678150508277
C         6.61959657548444   -0.47594712007140    3.98881079430368
H         7.30677095777321   -0.56086678931658    4.81493757805313
C         5.91915395642525    0.69637102702857    3.79861825670027
H         6.05285162884852    1.52573955788001    4.48102418910271
C         5.22466429226986    4.71518312298828    3.50747637436534
C         5.41079913882403    5.91038480084541    4.21068477811721
H         4.95922178022672    5.99700256169887    5.18541228511598
C         6.09088876765678    6.95928841627690    3.63274545612623
C         6.59049936436802    6.79642830460097    2.32824181473639
H         7.10546676891094    7.63052504348893    1.88367961740390
C         6.44135690173708    5.64660813649785    1.58700812600832
C         5.74756109529432    4.55771787537100    2.18058747113985
C         6.94440305887895    5.50542512001140    0.15860889202137
C         7.61805982856978    6.77697040229156   -0.36394550528102
H         7.94342444550670    6.61377822491066   -1.38953926283547
H         8.49429405244379    7.03051839054507    0.22871584197685
H         6.92725875761464    7.61706904890428   -0.36094360617539
C         7.96427202120576    4.35966948081636    0.10189499677804
H         7.50695639505904    3.42969096858796    0.42768236763823
H         8.81147722217245    4.57702603221585    0.74990530941141
H         8.32916436613797    4.23132879333117   -0.91535196700824
C         5.74874042293591    5.18611362965450   -0.74952923145357
H         5.25478708310950    4.27544018874052   -0.42081168019031
H         6.08038961870021    5.04960034656518   -1.77718693199532
H         5.02869329645331    6.00145738225121   -0.71984146377566
C         6.31899331722413    8.28224770796487    4.34627686671890
C         5.71813252951064    8.29999390716020    5.75440649472375
H         5.91773679874338    9.26229980284987    6.22159456540098
H         6.15815957107381    7.52608229124239    6.37899955134499
H         4.64041602437014    8.16007322124026    5.72080445475228
C         5.67402301458407    9.41679825537518    3.53863664628052
H         4.60558083870467    9.24160587621676    3.43917418135807
H         6.10254726818229    9.49044254652518    2.54316367571651
H         5.82428735023723   10.36816003155174    4.04489283994498
C         7.83021582626435    8.52614903445953    4.47012041169833
H         8.30546430378271    8.58415794047299    3.49497980036432
H         8.29667974878442    7.71776509757902    5.02925716062569
H         8.01631711205786    9.46058469219549    4.99540163099251
C         4.57504141915802    3.32350185320992    5.32723937476979
C         3.51743671968710    2.57442027786126    5.86518800174126
H         2.69771654683639    2.29044001695992    5.22582898402718
C         3.51805524778262    2.23283963384824    7.20020137917998
C         4.55044695564081    2.60024640502268    8.05193724324403
H         4.54149798965387    2.32432946109306    9.09272250900440
C         5.59944106187078    3.32891534115767    7.51114728334377
C         5.63248863891006    3.69017955940488    6.18039544564132
H         6.48173840342723    4.22715377145723    5.78715391176966

