115
CSD_code = IXOPOB | q = 0 | S = 0 | Stoichiometry = C50H54Cl4N4O2Ru | MND = 6
Ru       -0.37530345078368   -3.27799642137008   16.98773555345633
Cl       -1.48890213476933   -1.10608496933201   10.82466597693052
Cl        0.55728827588015    1.93868918817256   14.74596533385379
Cl       -1.04325536878779   -1.67875320552602   23.41753366689089
Cl       -4.74519315160631   -0.66995265769136   19.66058605552873
O        -0.84696907246585   -5.10364280579438   16.27377797786750
O         1.33431830996494   -4.17210021843530   17.56543982068438
N         0.34421729224508   -3.10362727137065   15.14443491716818
N        -1.95649132569228   -2.30766961149839   16.30361683722705
N        -0.04316405551785   -1.50741372216444   17.79276712503539
N        -0.91089037847572   -3.86173990965852   18.80824438983494
C        -0.05816640862552   -5.42046533537704   15.30108818599173
C         0.08019014266413   -6.73602762435748   14.77880885069352
C         0.92014801637405   -6.91051995663476   13.70216287993370
H         1.06571196086689   -7.90678612789626   13.32183270786076
C         1.60545078815542   -5.86484791196579   13.05823942383527
C         1.41026808129081   -4.57874140543977   13.51050638142513
H         1.89515839527383   -3.72997213242839   13.05558113497185
C         0.60473872280908   -4.34391210916039   14.62783309955118
C         2.52659962179554   -6.19817744893938   11.89590725903469
C         3.17919868920210   -4.95247695701785   11.29047138058895
H         2.42925365393430   -4.26694376593968   10.90245828219202
H         3.82557876673678   -5.24572944727284   10.46560646987458
H         3.78807510681034   -4.43378313574220   12.02690850227902
C         1.72383838654595   -6.89877601894788   10.79049881249103
H         1.28769924656945   -7.82935036820727   11.14219127302511
H         2.37077350135200   -7.12552426736893    9.94560368973372
H         0.91888456209780   -6.25352033554573   10.44485318911158
C         3.64133097860243   -7.12614156164668   12.39907415263690
H         4.19742362434388   -6.64062641131990   13.19790092284775
H         4.32921364542483   -7.36055816988049   11.58926216100507
H         3.23758639746650   -8.05803586986906   12.78453624767890
C        -0.71375105544367   -7.87577722200707   15.40210810599571
C        -0.42766064486970   -9.22770893526397   14.74229846558223
H        -0.69842308216302   -9.21850695536571   13.68878557887831
H        -1.01976293916388   -9.99742198948578   15.23340429661377
H         0.62114828216521   -9.49900045624389   14.84099414195048
C        -0.39337548215348   -7.99368821870576   16.89701159130316
H         0.65566912159140   -8.23671445461088   17.04848491493742
H        -0.99658651109209   -8.78051706062048   17.34590538320051
H        -0.60667079130085   -7.06137042410282   17.41061179607900
C        -2.20717112819407   -7.55931681833439   15.22919971973690
H        -2.45810180415260   -6.64531480787542   15.75990268742935
H        -2.81207593419580   -8.36943962334929   15.63127101487322
H        -2.44947984807017   -7.43455508753316   14.17506062779822
C         0.19307579014111   -2.01540474872042   14.33170192967530
C        -0.40603748876119   -2.11338729008231   13.06279700737266
H        -0.66823757140830   -3.08383790233883   12.67030827295319
C        -0.70410336377389   -0.96812339957738   12.35700071492657
C        -0.42543907810136    0.29867712759867   12.85260806008410
H        -0.68338592997331    1.18320481784121   12.29550590724591
C         0.20013121097613    0.38219017560859   14.08679467581268
C         0.52563641147632   -0.74056270373946   14.81700537395395
H         1.04889084514455   -0.65350792005361   15.75611546064809
C        -2.81355876258275   -2.78764606536423   15.39828419133157
H        -2.75864965650901   -3.85584958754318   15.21802370366666
C        -3.72070274105540   -1.99200456935094   14.73170963199034
H        -4.38646113502573   -2.42623718658111   14.00374571895473
C        -3.75716810647439   -0.62804884648693   15.01089271734064
H        -4.44872680267394    0.02044247873102   14.49737434258344
C        -2.88854539112757   -0.12401042298392   15.95705572477514
H        -2.87879750572768    0.92791000098454   16.19016761032753
C        -1.99462748728489   -0.98333721626727   16.59420129811641
C        -1.00735482780619   -0.57784169126283   17.57831674039736
C        -1.02995926102182    0.62384402707417   18.28458285662827
H        -1.82183811178560    1.33326815721200   18.10962419126069
C        -0.05075515715128    0.87814313535295   19.22278305095013
H        -0.05471219018568    1.79652856868098   19.78761642728481
C         0.94200388582712   -0.07732265754579   19.42595295516395
H         1.72764684599657    0.08481561663991   20.14582342966382
C         0.90794468953426   -1.24438459569875   18.69328360965626
H         1.66774251329764   -2.00933511956406   18.81255540547554
C        -0.14223364530067   -4.92919879058097   19.18983513811534
C        -0.46571740419258   -5.80385575744883   20.23016805873085
H        -1.40757896767104   -5.65674897300852   20.73387726257107
C         0.38074637801568   -6.84357155971835   20.54631270589641
C         1.59665934540642   -6.95098993716333   19.84818867976620
H         2.25716724189050   -7.75485845851464   20.12367595077490
C         1.98852043454526   -6.09570380202919   18.84310407978753
C         1.08012013667880   -5.07201782896517   18.45709645628424
C         3.34571634534548   -6.18819271946983   18.15961725626276
C         4.10874498895816   -4.88700894648535   18.45110295799916
H         4.21254967475776   -4.74003926693711   19.52492250609101
H         3.57552060274813   -4.04000137253024   18.02887279630351
H         5.10177074616117   -4.92613900353140   18.00811688385803
C         3.17031024762509   -6.34130853682399   16.64389275073522
H         4.14337076855002   -6.36100625346418   16.15679629085066
H         2.59889605628333   -5.51261004034967   16.23718933211128
H         2.64905107117328   -7.26589509637137   16.40737956272711
C         4.18549706436212   -7.36417897055688   18.66628313323172
H         4.39515223405680   -7.27106323352591   19.72960478981336
H         5.13656201210135   -7.37812962855988   18.13760988701416
H         3.68586065737877   -8.31247786873596   18.48068031613924
C         0.05670940267173   -7.87348026671920   21.61639125019284
C         0.00544334754979   -9.26371735709827   20.96714984740990
H        -0.24919821773270  -10.01626414117808   21.71062056577511
H         0.96100860266678   -9.53077925216234   20.52500329225176
H        -0.74826919667345   -9.28080283810043   20.18318149924659
C         1.14387897472569   -7.84377523245952   22.70011708715267
H         1.19944203388131   -6.85427763190992   23.14908202504549
H         2.12054846605504   -8.08850744953735   22.29249329971937
H         0.91216821129851   -8.56437011831449   23.48167788000588
C        -1.29271184880388   -7.61209520012768   22.29084446258037
H        -2.10391652064196   -7.64953296195869   21.56786739142792
H        -1.30202408928803   -6.64393706238569   22.78628896266779
H        -1.47666057693795   -8.37648212489288   23.04324231285134
C        -1.58614855164963   -3.11059999630753   19.72784433109174
C        -1.08073736913444   -2.88347214898380   21.02094668812105
H        -0.18099410561610   -3.38746873882843   21.33851911414674
C        -1.70635942611723   -1.97900905935579   21.85116010586500
C        -2.83626526344488   -1.27388342557314   21.45855605504561
H        -3.30002791224356   -0.55612903744334   22.11354051303974
C        -3.34633588581699   -1.53133641987074   20.19556549277199
C        -2.75839985532552   -2.44014911588822   19.34261486677193
H        -3.19821683486758   -2.65597653953490   18.38180416789432

