131
CSD_code = IXOQAO | q = 0 | S = 0 | Stoichiometry = C54H66N4O6Ru | MND = 6
Ru        8.11743616968086    4.30611020464339    4.43125686449398
O         7.08119221258889    4.59465068457980    2.69591838390804
O         8.35592751895909    2.40086427845231    3.87675671340249
O         9.95893457114101    7.66249648031584    8.60155825521492
O        10.91662253915611    9.75829670829775    4.43074140091231
O         4.24262348709261    2.21182157507072    9.15464886136534
O         4.67798394649816    6.86257683375552    8.19461180756687
N         7.72211888367545    6.24820905178228    4.56844798984945
N         9.87335490506768    4.94039391263098    3.71927704955110
N         9.24507733780428    4.04144554388934    6.02310624136527
N         6.43695858529216    3.56144478169297    5.15469379831189
C         6.47400703823951    5.73860980238809    2.64565680702148
C         5.56695131069107    6.12142541142926    1.62515955200559
C         5.05956891074294    7.40366841313705    1.66108107770898
H         4.35330755251395    7.69612914010162    0.90313973210904
C         5.40545523641168    8.35787416608239    2.63019398009935
C         6.31122071110703    8.00022028123785    3.60590199299132
H         6.61458221575806    8.68253886769295    4.38400262416863
C         6.83939049278082    6.70724583583366    3.63061623399950
C         4.76825482006924    9.73786383327185    2.56765321756803
C         5.24289852408869   10.65454785286810    3.69904819480469
H         6.31905029428659   10.80424409904944    3.65467224576108
H         4.98243701825935   10.24310361499270    4.67180248062086
H         4.76262623605834   11.62671628676071    3.60440981265269
C         5.13376688858336   10.40228624521528    1.23282141989053
H         6.21426553500883   10.49407096503612    1.14479522069268
H         4.69590690859617   11.39695248472345    1.17492487954645
H         4.77165592586674    9.82124689690119    0.38945449022289
C         3.24321561243019    9.59816198969356    2.67653200350248
H         2.77298351509794   10.57946443092579    2.65755952310521
H         2.97730345722020    9.10536994910489    3.60943036811576
H         2.83975350169331    9.01173095498398    1.85607519105477
C         5.18415227493800    5.10935304694904    0.55487300567532
C         6.45259895225536    4.68757308265754   -0.19987717183549
H         6.92902634287207    5.55447728732412   -0.65536840669954
H         6.20486525417300    3.97500304126946   -0.98449356734663
H         7.15194257529929    4.21798413739820    0.48529792881003
C         4.18120742013202    5.66436132825915   -0.46046169064360
H         3.25153218241173    5.95418981060969    0.02418660113622
H         3.95049435599543    4.89377565405329   -1.19376049099366
H         4.59115401914940    6.52079770165586   -0.99164991292732
C         4.56037040130969    3.88175427527553    1.23104337611989
H         5.26326962074330    3.43102032557239    1.92530572750047
H         4.28954130917458    3.13712247383311    0.48458519530577
H         3.66525169963350    4.16682189438708    1.78051624942190
C         8.57030832923909    7.11934784913902    5.22618411749318
C         8.77153438881127    6.95133697632957    6.60423415923056
H         8.18550741456474    6.20477017638326    7.11709302879146
C         9.69527741348996    7.73899035730816    7.26500681810819
C        10.44432976262364    8.68879138495210    6.56542895856967
H        11.16443662664565    9.26327424270023    7.12249716413889
C        10.23410039735522    8.86893288385732    5.20668936419248
C         9.28302838748791    8.10129553714681    4.54123402050663
H         9.13736011857026    8.24543249260850    3.48209621875146
C        10.06695676673621    5.40610612074020    2.48884490393245
H         9.26197284267119    5.23171647815360    1.78451238902769
C        11.21263863086715    6.08225957320213    2.11900287508026
H        11.32169766084307    6.45207652538510    1.11238432971348
C        12.20607025982060    6.28890677582748    3.07059501272277
H        13.10346230065443    6.83262660294763    2.81965274719712
C        12.02065217573934    5.78892393501136    4.34353908960942
H        12.76895366330191    5.94004443483656    5.10421930417308
C        10.84172289100509    5.10586384917379    4.64588503531540
C        10.51751377228006    4.51528640101706    5.93196384671305
C        11.42932589242891    4.37484813036872    6.97786957039930
H        12.42785817388706    4.76649542892141    6.87382051498809
C        11.05375361283828    3.72414321339223    8.13444370227011
H        11.74260494978675    3.61110371689227    8.95639813878465
C         9.76143289686953    3.20634175280710    8.20427984689900
H         9.42424236177500    2.67113430507140    9.07766634567637
C         8.90528572960580    3.38542519483741    7.13980914810877
H         7.89389312392581    3.00244024101091    7.18632130245219
C         6.09189183342977    2.47453792515973    4.40958820024076
C         4.81891248481303    1.90274078378063    4.35227333141765
H         4.02538348168040    2.37538388971563    4.91107454726298
C         4.57697991042135    0.80472313875544    3.55204991831824
C         5.63930176837785    0.27482728351077    2.80588851131993
H         5.44207529414990   -0.56761576080688    2.16877782609468
C         6.92202706468061    0.78281848538394    2.83609039813514
C         7.17950858822400    1.90385028405351    3.66539944579806
C         8.05825131429490    0.21209216530357    2.00029541502334
C         9.16160763182624   -0.28930585887251    2.94249034819330
H         9.52466506812997    0.52502398710402    3.56307057685919
H         9.99506369997142   -0.69006430163012    2.36828689868618
H         8.77562769623123   -1.07489079861028    3.58980370675050
C         8.60932468317810    1.32542701966956    1.09883200474556
H         7.83421348927630    1.67363350839790    0.41909268040429
H         9.44978887784045    0.95767738719086    0.51255553470657
H         8.94634236315741    2.16606678010013    1.69939950898226
C         7.61955077087949   -0.95305924033246    1.10915825602159
H         7.25441385578775   -1.78794315892130    1.70321486274387
H         8.47280151786330   -1.30150806501795    0.52997578036537
H         6.84417032088497   -0.64369044205107    0.41206116664753
C         3.17286223610092    0.21888094295142    3.50717238858020
C         2.19519427652733    1.28731523012380    2.99893761547341
H         2.48407396323859    1.61496556600951    2.00306469768391
H         2.18567724954779    2.15515637223012    3.65186917118906
H         1.18591866291261    0.88249395383471    2.95309274897817
C         3.06100134009806   -1.00125307134037    2.58886309077903
H         3.72076620273733   -1.80115462503467    2.91688352542975
H         3.29830538121537   -0.74036575382992    1.56022414283125
H         2.04008043178276   -1.37823673314040    2.61176443882673
C         2.77469988634181   -0.21547861283500    4.92554607390563
H         1.77416416804901   -0.64369967738791    4.92145521253200
H         2.78368526909241    0.62528204081402    5.61329191597105
H         3.46980396944313   -0.96583967154716    5.29676946403006
C         5.73528073430536    3.87643709412240    6.30232947319168
C         5.27580279471619    2.89429858314342    7.18100881672674
H         5.42368004501666    1.84702256885719    6.96750500906970
C         4.63882353338079    3.25314449778895    8.36665305657169
C         4.45762448240851    4.59030109489511    8.68371796622233
H         3.97584213825943    4.91238153267823    9.59101910791137
C         4.90637706355057    5.57587168178563    7.79942704289273
C         5.53996406119944    5.22615037369876    6.62354008287827
H         5.87418455223785    5.96566725472528    5.91779179858219
C         9.16114280017964    6.81344640609217    9.39170551944495
H         8.10106173570667    7.07520051035287    9.31925796061166
H         9.50015862458415    6.96288284077182   10.41568484920199
H         9.29198197638872    5.76187975571870    9.11603000469731
C        11.89509196200804   10.56497321067567    5.03949970185979
H        11.46346319883516   11.20597398072959    5.81448868290286
H        12.30126836882446   11.18694080302659    4.24321850570370
H        12.69883733356011    9.96212530840587    5.47468563009842
C         3.56860877315508    2.49952513712960   10.35457555231734
H         4.19809109941794    3.07315861117703   11.04286375258758
H         3.33505209667703    1.53370905837893   10.80026637456216
H         2.63921151443585    3.04827001136305   10.17198257125305
C         5.05189738126717    7.90200265928167    7.32052398832003
H         6.13443982264736    7.92409429493606    7.15556152674083
H         4.74246646781055    8.82364576731759    7.81187522360677
H         4.54545387282519    7.81557577440479    6.35415718701777

