65
CSD_code = IXOSUK | q = 0 | S = 0 | Stoichiometry = C32H24N4O4Zn | MND = 4
Zn       -2.78151796447182    3.82502668350243   17.60109186506111
O        -3.37721105319832    2.53648165631266   19.12886402768206
N        -4.80443995209002    3.88183567044898   16.91881989958164
C        -5.20059963166197    2.65190277787197   16.57392586727091
O        -3.51455816013070    4.70697417835422   19.29568553743623
O        -2.00708692036290    5.09832886832991   16.20098702446198
C        -4.18845421064711    1.66897681581244   16.32270886667704
C        -7.66790691094444    4.61428967211061   20.24223245316302
H        -7.04333538484392    5.41313704558041   20.61205203361336
N        -2.90770048909353    2.04585039384156   16.42735783788109
C        -5.91214084079877    2.71007766905036   20.44921162107411
C        -6.02506848393518    1.39280802544887   20.11315185197518
H        -5.28596964412496    0.61876566598987   20.17711881161386
C        -9.78618153729217    3.82789002509072   19.37458140917650
H       -10.80333856508179    4.05478454217291   19.08999853009766
O        -0.76821457219205    3.93351609273005   17.55967788641419
N        -7.28088150915542    1.13377385526159   19.62704604661458
H        -7.61950062173297    0.23101490430848   19.34253946777682
C        -3.77189090755565    3.56090889201925   19.71903437333559
C        -4.67642502035045    3.39243804442203   20.93669668961292
H        -4.15928766083069    2.77006659849599   21.66765103493556
H        -4.90044078100254    4.36778979957979   21.36379727951125
C        -7.16873738875474    3.31632078622205   20.14249751774498
C        -6.56207552837155    2.30198635173887   16.45068660644353
C        -4.56790607833080    0.35412514845278   15.97948421202115
C        -7.50991415116207    3.31620109346077   16.66683377097769
H        -8.56254774540733    3.09580934158486   16.56830832093430
C        -2.23160305860003   -0.16052054922215   15.84781644983072
H        -1.41155199970181   -0.83807237076001   15.66964003343367
C        -8.00653782459730    2.28849132019665   19.64089357002628
C        -1.96170301762315    1.16630948370858   16.20456673848053
H        -0.94493122745850    1.51730924457382   16.30980588970555
N         0.62349759314190    3.16889370470064   12.76330938149303
H         0.53779556967344    3.03499100975873   11.77062278477385
C        -5.70419199162448    4.81093360687267   17.13358319194820
H        -5.32206935216749    5.77896845546204   17.42168949120261
C        -5.95235807942763    0.02670191286990   15.89380441871668
H        -6.21964006972735   -0.98944268903666   15.64089330612966
C         1.04027331331512    2.22930813014390   13.66061347514734
C         1.03395771072995    2.83014490692409   14.94326715504784
C        -3.53728147939122   -0.57155001238802   15.73896208115487
H        -3.78608272940269   -1.58972588040961   15.47416340080553
C         0.59171692469772    4.17813221844302   14.76619651959875
C        -0.88488692458502    4.72558406187244   16.59896880731014
C        -7.07707983342324    4.57624160778996   17.00103845959773
H        -7.77888433601038    5.37577180563142   17.17378156065971
C        -9.31873804682177    2.53610167872303   19.25829811819915
H        -9.95074253950811    1.74058938814988   18.88915712888226
C        -6.90822961441925    0.96136750908346   16.11578677571431
H        -7.95689327121320    0.71145258915431   16.04152890985435
C         1.41578140122656    0.90429697401857   13.47759114623962
H         1.41976035150434    0.45583217576484   12.49435765404199
C         1.78417967032606    0.18545819404408   14.59493656576990
H         2.08352108531894   -0.84728943157326   14.48768355412550
C        -8.96802417520353    4.85358448545843   19.85642630577010
H        -9.37347245129977    5.85235144345091   19.92988950952563
C         0.34954080883421    4.33373263784127   13.43362011314218
H        -0.00052643760841    5.20003729222916   12.90623075397447
C         1.41411798371180    2.08001102458678   16.05667834257699
H         1.39828884172626    2.52306876671589   17.04042561865571
C         1.78220449829389    0.76577305109480   15.86700035728875
H         2.07702475641508    0.16485067942732   16.71502965914064
C         0.36526878891136    5.17655862278341   15.85435129491281
H         0.19752896458970    6.16625506975878   15.43266513426492
H         1.20670191080430    5.18951728396697   16.54718549979404

