26
CSD_code = IXOWOH | q = 0 | S = 0 | Stoichiometry = C11H12CrO2 | MND = 10
Cr        1.91086401791029    2.21535142759072    5.52234207255547
O         1.36266053096436    0.10347675976880    7.52242196261663
O         4.06518909803250    2.29051019675771    7.54745136797756
C         1.72538037455411    0.66344532477596    6.53887449447362
C         3.23824868256821    2.30492366847170    6.74591729214978
C         3.78393231209230    1.61472011273907    4.40623995793013
H         4.15244312115360    2.27022583465509    3.62573277916133
H         4.56867865964350    1.22300523911446    5.04272016446703
C         2.64227420025084    0.85749822083497    4.13262280394074
C         2.21531272591415   -0.08412652719435    5.21466264239993
H         3.05160742191786   -0.69874469951638    5.57183972985131
H         1.39613686756065   -0.73626357338632    4.89808521044978
C         2.08632015349990    0.68465931939469    2.74836972098261
H         2.57597500543137   -0.16418787428981    2.26480786977118
H         2.27904993961867    1.56624922262037    2.13956291675010
H         1.01619190530421    0.48413104703771    2.75970064419451
C         0.83314095374723    3.57800958653572    4.03629641071964
H         1.10021861978736    3.77477286758400    3.00840893819878
C         1.24521608806224    4.33805070402483    5.14790729146721
H         1.82900675722069    5.24650775329141    5.11412942555813
C         0.55958743812822    3.83850832212306    6.28646559615744
H         0.54386788017807    4.29940264815969    7.26458197803663
C        -0.26112536774294    2.77242835714373    5.86325106939483
H        -0.97325964507522    2.24344489384924    6.47730766816398
C        -0.08008869547090    2.60816803132687    4.47855778810271
H        -0.64482904525128    1.93773313658712    3.84984220452884

