96
CSD_code = IXUBOT | q = 1 | S = 0 | Stoichiometry = C49H40CuN2O2P2(1+) | MND = 4
Cu       11.77690730414171    9.55682367539448    4.36543990949820
P        11.94943284601855   11.79835622464320    4.12335035388782
P        10.46477785479558    8.51280652360075    2.84122849384157
N        13.48608716997110    8.66941460647186    4.96976287211378
N        11.24212714937919    9.12490425601027    6.31287467099171
O        18.16513203271622    6.53838796303777    1.19703016766418
O        17.94216211620328    8.64761626792386    0.49952017303174
H        18.65211368220275    8.39442858721766   -0.11186337758822
C        16.55833821318935    7.92521118552125    2.26734621799831
C        16.15500638241408    6.92140993632215    3.14584597192095
H        16.63403867246197    5.95630629916534    3.08271039923064
C        15.16431701819988    7.16256844156462    4.07285296666381
H        14.82923671332774    6.37690083703487    4.73410024147676
C        14.54847372706322    8.41666691757809    4.12202117043961
C        14.95034683386079    9.41993273200705    3.23469989251670
H        14.47475708896815   10.38902755600234    3.29630212965900
C        15.95430215734756    9.18069231801624    2.32307635323340
H        16.27181832654979    9.95624087077973    1.64451599165211
C        17.62803378478000    7.61176825209884    1.28799236900532
C        13.45314892477715    8.29949363253307    6.19571552414684
H        14.30120512605422    7.82709092774633    6.68965280641079
C        12.25743596788042    8.54150802828017    6.97015762254219
C        12.15216458047141    8.19136350767114    8.31777139611937
H        12.98429149665250    7.72404943459428    8.82077913403610
C        10.96851318435534    8.45485298867150    8.98210278711914
H        10.85623762567888    8.19639399726402   10.02366883737888
C         9.92613393619569    9.05677608535983    8.28697122451019
H         8.98909591610253    9.27658659683077    8.77164735419173
C        10.11219095420018    9.37262579242191    6.95024465091879
H         9.33172855224235    9.84322699137027    6.36793175882918
C        13.53640286009962   12.58292421636610    4.53422225900249
C        14.12688067075909   12.19367542444557    5.73586267147139
H        13.61149529555088   11.47997509328014    6.36838996580703
C        15.34806219972416   12.71918098414396    6.10996572523604
H        15.80172510547807   12.42397550592038    7.04427373869731
C        15.99230042032564   13.62435003592635    5.27960690325742
H        16.94826929026584   14.03283569457544    5.56894702091302
C        15.41342854322845   14.00285589095018    4.07941132944911
H        15.91826209110863   14.70649920222490    3.43498797827178
C        14.18727307851588   13.48420650960299    3.69995951784672
H        13.73596394112542   13.77785177623633    2.76274074117510
C        11.60635533372018   12.34808934354220    2.42587675180694
C        12.13922646436566   11.57051837638818    1.39957021809361
H        12.73809384088117   10.70286356813909    1.64597644693352
C        11.89339030536884   11.89757672870925    0.07931823619398
H        12.30420469646625   11.28723372731519   -0.71108133162842
C        11.10817223506504   12.99998092282785   -0.22181806765340
H        10.90837991867060   13.25401624807104   -1.25156829612653
C        10.57669952712383   13.77506323286547    0.79713534800031
H         9.96804358943896   14.63449709403877    0.55929423521752
C        10.82035340993018   13.45415388886888    2.12110352531848
H        10.40134269354095   14.05687937193106    2.91416591433401
C        10.73891763116631   12.72025926717501    5.11663019989667
C        11.06750334350879   13.76227279305639    5.97526700397604
H        12.09271431253877   14.09290673183003    6.06291317545812
C        10.07162609808819   14.38081188623086    6.71221494470086
H        10.32552257733817   15.19454997144182    7.37469084587443
C         8.75522609520251   13.96483982959333    6.59979271479409
H         7.98472610626382   14.45444329242248    7.17542573692639
C         8.42618038147312   12.92058598685112    5.74822881627720
H         7.40052105361690   12.59462488611426    5.65723093317209
C         9.41510540390487   12.29490416957232    5.01502398330124
H         9.17504943920595   11.47922592468208    4.34449165292777
C        11.06850775206061    8.33312409700980    1.13244709194860
C        12.43029206883935    8.07245310329735    0.99925018419402
H        13.04537822718560    8.01215532551200    1.88850124781202
C        12.98797254002240    7.89454059812367   -0.25212808671973
H        14.04501919428854    7.69524608684675   -0.34748908132343
C        12.18567087484561    7.97494280040165   -1.37957333198191
H        12.61719786977744    7.84099953814176   -2.35976943691069
C        10.82870862272911    8.22334628307260   -1.24994738571862
H        10.20434650008459    8.27779258716833   -2.12916135827567
C        10.26409258926084    8.40045738722240    0.00107291260645
H         9.20505911786019    8.59503163346795    0.09137967965988
C         8.84805951907606    9.32420542615676    2.70048589789687
C         8.70549798595095   10.45488529975678    1.89722948678647
H         9.52830609737857   10.77827403549493    1.27564990895707
C         7.51464745273157   11.15763952881997    1.89673303292860
H         7.40794498792668   12.02715295255200    1.26582472265799
C         6.46594561483197   10.75130511495953    2.70694898170559
H         5.53727343212047   11.30113239546414    2.70388658190377
C         6.61115117163884    9.64115017779231    3.52393663011472
H         5.79655038843487    9.32709568876218    4.15943314292057
C         7.79909205926698    8.93267024591592    3.52952092273434
H         7.91721638636557    8.06963651365411    4.17123581269075
C        10.03546531000510    6.78253826831019    3.21731405965465
C        10.66006788900108    6.15742982725345    4.28988950193455
H        11.36619260623060    6.71848374153030    4.88877852878517
C        10.37597300247254    4.83557066863670    4.58398880470033
H        10.86043538676193    4.35056453872572    5.41857527582693
C         9.46981363776692    4.13541892755078    3.80520766531233
H         9.24792402737119    3.10408718622508    4.03279849907316
C         8.84819372371702    4.75554898312686    2.73151244905159
H         8.14422303412007    4.20583249921690    2.12528146124624
C         9.12911061416289    6.07498125072487    2.43242999235898
H         8.64759702427947    6.56074828070445    1.59555530314417

