86
CSD_code = IXUGUD | q = 0 | S = 0 | Stoichiometry = C41H36Cl2N2O4Ti | MND = 6
Ti        7.02465938813903   16.92857467755210    1.71635658068775
Cl        9.15953337573128   16.86619537141353    0.85818225657803
Cl        4.86562121297135   16.19270546801185    2.06372393593872
O         6.60900214459725   18.46718124373530    1.14011236232468
O         5.27930998906382   20.65406478447960    3.69195241005572
O         7.21716295275366   20.46351770624417    4.86719829353548
O         7.45159981241254   17.20589334176209    3.31820095556226
N         7.34903252501597   14.78671301240119    1.97137688033448
N         6.66780312056976   16.04830034106884   -0.23680831773152
C         6.00094703990488   19.62213688060874    1.59934146500376
C         5.92968618025456   19.52897420191966    3.15378272361109
H         5.39066178323618   18.59876461453922    3.40984843271994
C         7.32147915916508   19.52978934189800    3.81686886536769
H         8.08208699846061   19.88516176676256    3.10145184366781
C         7.78847278046926   18.11166141719415    4.30126496868759
C         5.92123031045815   21.04265294616159    4.88784773238281
C         6.05722279323837   22.56626888635798    4.90474892951000
H         6.65504871650362   22.88148493860728    4.05367389861460
H         6.54429245953654   22.87603024295024    5.82386344422407
H         5.07213035010710   23.01665970483995    4.83721002865177
C         5.13150511451475   20.54522431481192    6.10500334259573
H         4.97329367332586   19.47281943476120    6.03197932066091
H         4.16894075115087   21.04700483655887    6.13800344928044
H         5.68981291215400   20.75706610581479    7.01159426771795
C         4.62066920184713   19.68132786457973    0.94800304917843
C         3.43136842920255   19.44093146911695    1.61940014687344
H         3.42527086545822   19.27319229962769    2.68324547880322
C         2.23162174436266   19.43323009158141    0.92620688625033
H         1.31194428733013   19.24496297576223    1.46019156974212
C         2.20413553199925   19.65618233714715   -0.43847016711068
H         1.26590932796514   19.64350022516342   -0.97387591338296
C         3.38777829554927   19.89883065779390   -1.11492296137994
H         3.37808736501773   20.08075128301473   -2.18030747721184
C         4.58558383039817   19.91210045481407   -0.42528206659686
H         5.51058703363919   20.11625761032663   -0.94968188795685
C         6.80590387585693   20.85409832741852    1.20758013257237
C         8.10990809652777   20.71472068423049    0.74691603214374
H         8.53332075656081   19.72086786357076    0.64240282573660
C         8.85366192930162   21.83542073442984    0.41922535941752
H         9.86677361400395   21.71845159345548    0.06353672603940
C         8.30219182956230   23.09841441368641    0.55174661915485
H         8.88460142086094   23.97292843286645    0.30030242681875
C         7.00003925900748   23.23814719967726    1.00368575098667
H         6.56534937101537   24.22244297259764    1.10313799460836
C         6.24933502973285   22.12133413379000    1.32655180510105
H         5.23391247952413   22.22289730426075    1.67763584858386
C         9.30573598388198   18.11675580696470    4.48456654930922
C         9.98692002706325   19.24752797587204    4.92049458339343
H         9.44250249899838   20.15516044273932    5.13112648591867
C        11.36138177994959   19.21470087708529    5.07971206174279
H        11.87959648349209   20.09994127858653    5.41922600030091
C        12.07215317365634   18.06070329918506    4.79811944165675
H        13.14572664392372   18.04145861608467    4.91613305140883
C        11.39968640122426   16.93522913234093    4.35619388545232
H        11.94563869181159   16.03294769984041    4.12264801568131
C        10.02475226219037   16.96162212122010    4.20459001533229
H         9.50524306117529   16.08254752586449    3.84531797077193
C         7.09736497032242   17.73852799617639    5.61050109743225
C         7.54865472191190   18.22154318881221    6.83246755470583
H         8.41181769745331   18.86615249104403    6.86906884352323
C         6.89088021501993   17.88098625236547    8.00131466697153
H         7.24883251147014   18.26395900877707    8.94595893146229
C         5.78124899259069   17.05321466596964    7.96615388900246
H         5.27046645738415   16.78990857542572    8.88077974796129
C         5.33151081301048   16.56458326546278    6.75180357326050
H         4.46632897769986   15.91918980351499    6.71027417483969
C         5.98418704859198   16.90441962586551    5.57866906091745
H         5.62456998443483   16.51938868517299    4.63057169202251
C         7.50598602018533   14.19198127533230    3.14487235571609
H         7.49986784958997   14.84275021550841    4.01348772857321
C         7.65608180525568   12.81986699732979    3.28003606521471
H         7.78650415490159   12.37997382403926    4.25580869394051
C         7.62578668777334   12.03705093881363    2.13674433840316
H         7.73355974599986   10.96433821386672    2.19765429022837
C         7.44060441310083   12.65271436042216    0.91160249398631
H         7.38460915460614   12.05980002292634    0.01329853998761
C         7.30869542803949   14.04119173156050    0.86073471706532
C         7.06558654894643   14.77940128296502   -0.39152735490695
C         7.21942225189050   14.21472194232814   -1.65726511724720
H         7.57628259306377   13.20420411455338   -1.77279083153716
C         6.93068339957262   14.97934176004059   -2.77455443530927
H         7.05140748571094   14.56482997659426   -3.76441498575856
C         6.48432751507005   16.27911544608649   -2.59859112626088
H         6.23585408791412   16.90345948287167   -3.44183413745058
C         6.37461210774468   16.77160323792837   -1.30599296871667
H         6.03704023486723   17.78425033302487   -1.11156580733202

