40
CSD_code = IXUGAL | q = 0 | S = 0 | Stoichiometry = C19H13N4O2SV | MND = 5
V         4.53519152052376    8.72696514993262    4.69746582799326
S         3.44487100594405   11.87519478195870    7.58055084825729
O         6.04990756901906    8.84329592328486    4.51363829355618
O         4.06755421329833    7.38985311527904    5.27566944699734
N         4.12110755422913    8.29530737286046    2.81298259359672
C         3.26225670423484    9.08755012784783    2.14849557025846
C         2.84444783088348    8.76657673478081    0.84955735759502
H         2.12086526392009    9.39161474188188    0.35016546509302
C         3.35880505442054    7.63945000475945    0.24335712285738
H         3.05274260629570    7.37151632248784   -0.75690664857700
C         4.27023570526410    6.85110759084861    0.93855886152704
H         4.69497764870236    5.96705920763514    0.49163709212352
C         4.61472210520414    7.21425812423629    2.23148699533085
H         5.30390903490130    6.63088680906252    2.83307756811324
C         2.80490355505831   10.22764851078785    2.91168607204072
C         1.95850051011534   11.29150509900507    2.35024865231603
C         2.28180510991465   11.87816527651612    1.12667488637535
H         3.16906962722257   11.56041210518399    0.59723094479372
C         1.49441543469182   12.89003803367882    0.61025109216752
H         1.75641523889803   13.34231925812925   -0.33497781201329
C         0.37799179912036   13.32762895762436    1.30398547960215
H        -0.23636246858779   14.11655956143216    0.89652325531410
C         0.05864378444962   12.75777817697081    2.52529636547024
H        -0.80621623210570   13.10179137938207    3.07254529092662
C         0.84477577738977   11.74992731604249    3.05116521992191
H         0.59689252554998   11.30765034449143    4.00356902066126
N         4.34947945768029    9.82053285810726    6.29325561699940
N         3.24016792763420   10.20336300576285    4.14228666096864
N         2.94339842093822   11.14650767549971    5.01888302639785
C         3.57250365963589   10.87830950906020    6.15738757823168
C         4.53101439777619   10.76802973938987    8.40400833086162
C         4.90322080078718    9.72631621035510    7.53310128396076
C         5.76615831825022    8.72130513709872    7.96483420125699
H         6.03190418682311    7.93546697239414    7.26570192017537
C         6.23778797997266    8.78141138714568    9.26050233303486
H         6.90773067718028    8.01523794205411    9.61959270138862
C         5.86527037473800    9.81598897200307   10.11763604427554
H         6.25061222327354    9.83734186144573   11.12551548740947
C         5.00929450475177   10.81986772409071    9.70099647225399
H         4.71962859200011   11.62206097949288   10.36076348048678

