49
CSD_code = IXUGOY | q = 0 | S = 0 | Stoichiometry = C24H18N3O3V | MND = 6
V         3.48006390050380    6.83672727093648    2.44477243314853
O         4.11605041307762    8.00858671314266    1.71671564880354
O         2.29003247892610    5.46483516606750    3.24855420507162
O         4.98306945712072    5.70122394910511    2.82698866040762
N         3.11213727235700    5.89292794192906    0.95513657725591
H         3.43689686346159    6.09250052955174    0.00695210466246
N         1.84858675042677    7.90695174800264    2.85613136539493
N         3.79000652767138    7.30054617144160    4.40036975060252
C         2.51665679989675    4.70002529648201    1.09215837000642
C         2.29268068093459    3.72732781576957    0.10833775549198
H         2.65123176153227    3.89080752919230   -0.89983302059542
C         1.62873932357701    2.57044020537365    0.44764486086698
H         1.45605650278832    1.80763589667902   -0.29687044965480
C         1.17409989252158    2.37027796221007    1.75486438535532
H         0.65604167997663    1.45255263483087    1.99510822947513
C         1.36998303462034    3.31214766545706    2.73865005433317
H         1.01774542680692    3.14818094772341    3.74697986244735
C         2.05751773403448    4.50340796116721    2.43490085273446
C         5.55748203330672    5.90691816189205    3.94501481920234
C         6.76485017087525    5.26631920709351    4.32007190914698
H         7.22232091305815    4.58820566544195    3.61506733686675
C         7.33835548746067    5.53107407327117    5.53580088916148
H         8.26607016350051    5.04713331723672    5.80569029497908
C         6.75341482529346    6.43179428940327    6.43553479343946
H         7.24060343726931    6.63853201018925    7.37623511304257
C         5.57077716605898    7.05641587909710    6.12535872009450
H         5.13892938720268    7.76684579471890    6.81399170086527
C         4.94787346746356    6.79900077160677    4.89253359756094
C         2.84843034567788    7.96038217682782    4.99039681037031
C         2.78129633114544    8.30730873698094    6.43173755877686
C         2.54922387662261    7.30554980070981    7.37079382384248
H         2.44415116798269    6.28297787078351    7.03848316842698
C         2.45804871986940    7.62253827611060    8.71377759039993
H         2.27747909269071    6.84219664260483    9.43780477273099
C         2.59828296677566    8.93676801142270    9.12974805138557
H         2.53037216429674    9.18131068649883   10.17917686587691
C         2.82557550408155    9.93685402235720    8.19886759686095
H         2.93566886195885   10.96158841291451    8.52125183101096
C         2.91065464085774    9.62759814400136    6.85248809171545
H         3.09287430329280   10.40274210572741    6.12196308433686
C         1.73072598501123    8.30821022554048    4.13075314326681
C         0.58876089027911    8.98655699313434    4.57571982008959
H         0.50883668767684    9.27883205076183    5.61161093173686
C        -0.41958062378947    9.26447961254435    3.67482718700552
H        -1.30899407599516    9.78774587690517    3.99266627914234
C        -0.27027985287656    8.85761624923276    2.35509903711831
H        -1.03166928789957    9.06300883806744    1.61993251366162
C         0.88242386812797    8.17242201218848    1.99637979210614
H         1.03954488248937    7.82767067967489    0.98016122996579

