39
CSD_code = IXUKER | q = 0 | S = 0 | Stoichiometry = C20H12HgN4S2 | MND = 4
Hg        2.03786148533667    0.50062692603159    1.77470284839453
N         3.93025159889548    1.19963631578453    0.43835849054797
N         4.09739533216675    0.13961699824565    2.99259275319093
C         3.77050367471235    1.98537036743943   -0.64896054471457
C         2.54102681167149    1.96502678225717   -1.33897165764010
H         1.75790299599317    1.29408096236221   -0.98605910557260
C         2.34526795477212    2.76957776246528   -2.42620838614304
H         1.40020422286175    2.75696131565333   -2.94784829854115
C         3.36841078679689    3.62118644331186   -2.87620066861649
H         3.19061318939220    4.24981620836854   -3.73555923710314
C         4.57478363074500    3.65567168595874   -2.23396091479373
H         5.36527958709736    4.30838467686032   -2.57366634773450
C         4.80803442390604    2.84157144741420   -1.10771318273337
C         6.01659757485423    2.84208538442532   -0.38502924737130
H         6.81610449509928    3.50150356773284   -0.68988497764573
C         6.15688234752402    2.02061945603632    0.69816432808119
H         7.06160415281937    2.02642152735516    1.28388024055859
C         5.07664715435178    1.20472026503881    1.09082766834070
C         5.18758388961162    0.33142469653443    2.27524143518363
C         6.41381664097587   -0.28345242948461    2.59940430055434
H         7.27089111116085   -0.13272286685172    1.96352530199128
C         6.48038624498296   -1.11527536844213    3.68173788336036
H         7.39831529333636   -1.62536507047067    3.93516337342039
C         5.33331207710140   -1.32410809166592    4.47135648629369
C         5.30912090750125   -2.16689688397307    5.60039230438773
H         6.21851354660616   -2.67351475261552    5.88789206664444
C         4.15375220743319   -2.34190302587138    6.30994872063759
H         4.13659537981190   -2.99276807568912    7.17095757058076
C         2.97510612427014   -1.67916775543112    5.92775686127427
H         2.07363441075769   -1.83010938290697    6.50219609541727
C         2.96634593789510   -0.85222389936277    4.83971926741564
H         2.06025830166296   -0.32633077055068    4.53895809337379
C         4.13891338235153   -0.66026782723038    4.08055567381690
S         1.22893247995932    2.73534191531171    2.45722978637384
N         3.81583768424531    3.79190850283073    2.19343453319997
C         2.76199210135031    3.34133811727649    2.30390601360275
S         1.58134745129810   -1.84231075796209    1.12964623047574
N         4.32119373809304   -2.44295158395709    1.23446079346940
C         3.20177967011838   -2.17732278207321    1.18855344854591

