51
CSD_code = IXUNEV | q = 0 | S = 0 | Stoichiometry = C19H27Cl3NTa | MND = 10
Ta        0.28095309027810    7.06307220704732   15.18317150189727
Cl       -1.35031713176861    5.92276417369328   16.33059201289869
Cl        0.62155133585087    8.46756011898833   16.97939138275623
Cl        1.79805629177616    8.17883208052852   13.88359363893763
N        -1.28913991424991    9.32970141073624   14.49873451991495
C         3.88378123911403    5.80446397243626   14.63188598612137
C         2.71906068998864    5.23678854441714   14.22696548307119
C         1.79685746860188    5.15824772278707   15.38391751248035
C         2.59773346375167    5.67046598363111   16.52428055997574
C         3.80943066049311    6.07292929720204   16.05993113542464
C         5.07957445103211    6.16049438352589   13.81653709729175
H         5.01546952750596    5.74402242894665   12.81520230679601
H         5.98871248520955    5.79392684138850   14.29128218799043
H         5.15845715660890    7.24488706682162   13.72993875707191
C         2.33924561023591    4.76591384480917   12.85928805057334
H         2.03461655400420    3.71925086990076   12.88366358412409
H         3.17819222721065    4.85910972735707   12.17529564093620
H         1.50935971609788    5.35404577697119   12.46137475780174
C         1.09184565359210    3.83441895330779   15.59963141153664
H         0.43385375883693    3.86909757787999   16.46485571104707
H         1.84041705239346    3.05812130099565   15.76967956747091
H         0.50402197438450    3.54896772887587   14.72952941709816
C         2.13444112665592    5.60445318272047   17.94716704996586
H         1.04681193789261    5.59504570131407   18.01239631231763
H         2.50338371708561    6.45409452973788   18.51907997976232
H         2.51118984255235    4.69532134173192   18.42068393484723
C         4.92804158584889    6.68930860654737   16.82887514196642
H         4.61922301376673    6.92668612129089   17.84328994146665
H         5.26266883213975    7.60416825427966   16.34091144028989
H         5.77778519274458    6.00753291718424   16.87913476123727
C        -0.97922495898909    6.73937888678433   13.35954525791055
C        -1.24982875676158    5.44465665595488   12.92534154871582
H        -0.88326314985567    4.60731333313859   13.50420308656438
C        -1.98994232818592    5.18790481964614   11.78197028745768
H        -2.17320128222793    4.16869927462015   11.47482985361955
C        -2.49989083192243    6.24088409786456   11.04446408504190
H        -3.08230428229028    6.05395237586069   10.15469434903698
C        -2.27189647614195    7.53809153112318   11.46636313235823
H        -2.67881026151722    8.36661666945788   10.90332122920143
C        -1.52371372507658    7.78575978789177   12.61061223566816
C        -1.27283263878306    9.20792484122151   13.04326976122322
H        -2.00815524796186    9.88414615586420   12.57923465878145
H        -0.27382186945904    9.49662795179915   12.69838954682442
C        -0.73839113480425   10.60799177263683   14.91890193950365
H         0.29711841893086   10.67689822646637   14.58847028950004
H        -0.75812467806377   10.66692102719351   16.00528232377294
H        -1.30600238492838   11.45307798081847   14.50633551946975
C        -2.63688857913916    9.15238430938266   15.02165930015399
H        -3.03622444740930    8.19840564705009   14.67908855063536
H        -3.30881909400418    9.95697301551590   14.69257944000924
H        -2.60006090104169    9.14579897266426   16.11016281948271

