48
CSD_code = IXUNAR | q = 0 | S = 0 | Stoichiometry = C17H25Cl3NSiTa | MND = 10
Ta       -0.34547513586545    7.42119758575512    8.59516365541939
Si       -0.14656940692341    8.45997950797948    4.81549133697466
Cl        1.22403712349277    9.05295883945371    8.88569105167534
Cl       -1.80044135724169    5.67828544207955    8.21242234542948
Cl       -2.04510796438541    8.91526131987047    8.19014658583490
N        -1.03451436382263    8.44845948601232   11.13346973835722
C        -1.27165577886156    9.88285343603453   11.17911551032154
H        -0.43265547930203   10.39756105093718   10.71301699483725
H        -1.39017698489009   10.24272838794615   12.20930302520476
H        -2.17422562186892   10.11657581613431   10.61836400664744
C        -2.19627163083183    7.72004788855970   11.62815825641088
H        -3.04853142173168    7.92622376783658   10.98213186412402
H        -2.44905861063890    8.01476850891801   12.65549847186789
H        -1.99229792090039    6.64981628223079   11.60888598338709
C         1.19183474165206    7.71702126360790    5.90715875995379
C         1.00841285823551    6.57827491922146    6.82691931157704
H         0.46387717844042    5.71990322977005    6.43926717755520
C         2.33205837601212    6.33257337737683    7.38946895324989
H         2.57045654982865    5.51992319044257    8.05406042848807
C         3.19247715681989    7.27131191176202    6.91790784841171
H         4.23231844964557    7.37471800050224    7.17358478899445
C         2.48972244550462    8.12175831579076    6.00977561325906
H         2.93293575850515    8.95753068565414    5.49817980143340
C         0.48550933970988    8.44347429046019    3.01303628725015
H         1.41621978682015    8.99293095031703    2.92155429592074
H        -0.23488604811090    8.90221743574231    2.34395089827539
H         0.66669043518762    7.43326262955786    2.66149236338593
C        -1.73837185341268    7.40562752314015    4.88376663548497
H        -2.17471333201809    7.36401675784909    5.87792891727167
H        -1.54828154874692    6.38424203354524    4.56556971716575
H        -2.49330072675037    7.81402473541575    4.21792664802758
C        -0.47099939560991   10.27834184798679    5.31257555978057
H         0.38675551334911   10.89951342598452    5.07179978189757
H        -0.65676729240198   10.38144503884946    6.37782111504596
H        -1.32901591888511   10.68649348164982    4.78667676054095
C         0.44180887447088    6.18771293511833   10.30162389922073
C         0.81179152623709    4.86536311231859   10.07557580766383
H         0.65504176175368    4.42904865957393    9.09765342982142
C         1.36207935114726    4.07950079530840   11.07606318665727
H         1.64513270657562    3.05901252103435   10.86450147330264
C         1.53707368870053    4.60289036989330   12.34472422975616
H         1.96196698988813    3.99815569565555   13.13165853852309
C         1.14238328638654    5.90252833248093   12.60460107061341
H         1.25653596906651    6.31291761421266   13.59811454738179
C         0.59509814045776    6.68601741394706   11.59577325508762
C         0.16520334872879    8.09951053893864   11.89134488758543
H         0.00547300841583    8.23330236389093   12.97256620145115
H         0.96522342851404    8.77711728329529   11.57371898348326

