34
CSD_code = IXUQIB | q = 0 | S = 0 | Stoichiometry = C16H14BrClSeTi | MND = 12
Br       -0.90404510356105    2.62355810617336    2.80940204116676
Cl        5.85538384500795   -0.21509639202179    3.69287170375502
Se        3.95654436702493   -1.50022119069353    1.14192706607729
Ti        6.14686899357055   -0.36752651146300    1.49953374344159
C         6.81515735705827   -2.30000419377569    0.32398394859186
H         6.24971978792533   -2.78483192397755   -0.46392403531747
C         6.78190089289581   -2.65740106376948    1.69814580369911
H         6.16654459557368   -3.43584447217755    2.13404241302711
C         7.77203567851718   -1.91627996984726    2.36242467094096
H         8.05255200293348   -2.02230852402894    3.40268531177736
C         8.39611668260227   -1.07495637860437    1.41960781452078
H         9.26798709429603   -0.46184960070907    1.61118280735037
C         7.82816306209923   -1.34324750065182    0.15208908832180
H         8.19097973209835   -0.97167050593596   -0.79668835588029
C         7.23734515724338    1.49937444992289    0.49263797845013
H         8.28592905957103    1.58602470739681    0.24083021311515
C         6.64383422760202    1.92840867514370    1.69456421038545
H         7.15805573352588    2.37485133897286    2.53728149419920
C         5.24289441931162    1.81109606987967    1.55453110261590
H         4.50395139488213    2.15505985519960    2.26719332919865
C         4.97652806618460    1.29586014571429    0.26880603716834
H         4.00028939922185    1.20952737036438   -0.19156827910206
C         6.21029739990945    1.08274931923930   -0.38046730241276
H         6.32714953596863    0.79571791892630   -1.41801875896634
C         2.54796512292163   -0.28348175810432    1.63441371391420
C         1.52236694067715   -0.01664765923922    0.73224822056721
H         1.53368712970564   -0.48946024391840   -0.23982800315880
C         0.49607554241189    0.84184582981568    1.07768099408565
H        -0.29967509720792    1.05462648321127    0.38008526004596
C         0.50013149303244    1.42723414740095    2.33277061351322
C         1.50376135326369    1.15758247030651    3.24870007587924
H         1.48346128962413    1.61251914958728    4.22760297956059
C         2.52628760101664    0.29618821637840    2.89783240997997
H         3.30835524309026    0.06770363528096    3.60941968948840

