126
CSD_code = IXURIC | q = 0 | S = 0 | Stoichiometry = C48H74N3Sc | MND = 4
Sc        3.60340693690404   13.69416425853896   14.67893757815564
N         3.85336300057632   15.42552691056425   13.39670899113434
N         1.90830527572054   14.67193890528108   15.64907313457629
N         3.11936326087903   12.30766800476162   13.23296074709368
H         3.01838048780357   12.80308584437626   12.34186362264040
C         1.86975875632922   15.98696119901870   15.70721775885969
C         2.86481211495666   16.78540467914009   15.09894133736727
H         2.86876646228960   17.79242782157987   15.46976258646297
C         3.72810719555753   16.59594529718673   14.01524341549721
C        -0.39701969737368   16.10099617766086   17.03048573240855
H        -1.12734679223065   16.83553513953152   17.37092227430569
H        -0.08348957120524   15.52044873110915   17.88975766497174
H        -0.89739040412481   15.43667386200214   16.33521371252112
C         0.76769751698896   16.84829154702400   16.37312164099232
C         1.39636111659594   17.75622144264485   17.44886154271506
H         0.62293831589862   18.12073105560615   18.12194686384258
H         1.88343904842205   18.62659565200774   17.01746078025425
H         2.13195968166885   17.20972937605620   18.03354807933099
C         0.14538812263526   17.71735245757922   15.26327847694897
H        -0.30193260261667   17.08582952813851   14.49821931415089
H         0.88054932956135   18.35552766269343   14.78308377323035
H        -0.63340263563743   18.35091362037729   15.68391352534308
C         5.59150213427458   17.99885593639085   14.79090185189073
H         6.18530580363199   18.89889191979777   14.64173939404010
H         6.26013007555582   17.13983843497867   14.78919555028188
H         5.11655285618437   18.05672860590541   15.76710763814940
C         4.55039637474933   17.86234265419912   13.66530590482660
C         3.67002000109276   19.12595431141444   13.62150311912840
H         3.43805928841206   19.50521709492434   14.61331692059870
H         2.73841679345738   18.92928933159092   13.09701388677427
H         4.19538909781221   19.91910716775158   13.09317797748291
C         5.32023923814535   17.81729577924490   12.34365457664298
H         5.91453161486813   18.72680170483694   12.25506864614369
H         4.65438488243174   17.76566304338488   11.48773640691091
H         5.99852153836925   16.97459463908738   12.30515432114966
C         4.22335342520436   15.25641824109006   12.04616098609331
C         5.44455531430503   14.65457965592704   11.67444474747793
C         5.71189106684162   14.42800813190606   10.33217466678862
H         6.64553257553217   13.96663991540047   10.04896583794188
C         4.81172974074406   14.78353684403606    9.34699643868723
H         5.04200576025735   14.60872382605475    8.30661810582863
C         3.61124666307018   15.36051975224041    9.70935109092544
H         2.90222856666999   15.62883394209409    8.94057981875625
C         3.29796531758886   15.60279709295830   11.03828555784797
C         7.86714900721647   14.84405770884461   12.39004349695495
H         8.28316076753359   14.42073719643552   11.47944194064613
H         8.54981937507353   14.62068522084832   13.20742152569362
H         7.82239830685301   15.92432697878923   12.27090958019177
C         6.48699223825265   14.25063756446661   12.69610422041588
H         6.16752731235511   14.62172685442208   13.68113669671616
C         6.59878588474067   12.72266490516351   12.76430514470839
H         5.65399946031255   12.27962846947656   13.09004194038589
H         7.37642487529499   12.43346938514177   13.46888195301041
H         6.85368740514054   12.31534078511223   11.78854539376774
C         1.70181594367754   17.52487812629968   10.65939727201423
H         2.50314280036316   18.22863731525934   10.87103063363599
H         0.76292500415535   17.96052728088651   10.99677125429521
H         1.64422863005170   17.39307010353183    9.58168210240929
C         1.94028895214584   16.18738319217251   11.36509925126700
H         1.87573616260386   16.35531181227699   12.44500483326686
C         0.84647147388009   15.19062202468943   10.97330494541080
H         0.83625842530631   15.02936574465020    9.89772587623672
H        -0.12989800893809   15.56651199259293   11.27249587098447
H         1.02038406850125   14.23457915535672   11.46070482248873
C         1.00816926111665   13.78588732608543   16.29222306237499
C        -0.03572866127008   13.18827384669731   15.55966381693900
C        -0.90629036292193   12.31935502494763   16.20106943121869
H        -1.72195295353921   11.87903467578472   15.64776732403077
C        -0.75832067009913   12.01273344244373   17.53851635057120
H        -1.45245757722243   11.34499251099190   18.02600187112590
C         0.29893215147443   12.55457993730256   18.24117585081030
H         0.42583024487935   12.29395504896310   19.28113415522100
C         1.19358675412914   13.43243532927496   17.64526598796389
C         1.91961453732408   14.72157930697082   19.70896514632859
H         1.31716544906093   14.09938607347911   20.36676541842874
H         1.33554519281269   15.59830483160803   19.44496054402636
H         2.79560034043387   15.05173900480722   20.26412220919109
C         2.36090792539526   13.93592270219874   18.47007846622693
H         2.98323849586761   14.58720084560630   17.84226933669211
C         3.21502032327858   12.74584414995777   18.92126786275698
H         2.67390917745309   12.13039762755822   19.63644513250641
H         4.12683933855307   13.09741679841685   19.39981274960384
H         3.48149273289600   12.12854228694951   18.06654368128257
C        -1.56926402878392   14.18364303416360   13.82641934924338
H        -2.40247283124177   13.59298970518061   14.20038678922113
H        -1.71044389710129   14.33046999811314   12.75762834432407
H        -1.60006134842921   15.15721970890882   14.31029940382233
C        -0.23871675658420   13.47008522252230   14.08637287878995
H         0.58101759509231   14.11745425215857   13.74099203429526
C        -0.19143466670968   12.16611116887263   13.28364306532813
H         0.76416594919746   11.66622964957246   13.42649730821450
H        -0.32086627532441   12.37446213703269   12.22307332268993
H        -0.98618867491265   11.48932925029169   13.58734013471862
C         3.24610969659269   10.97221649884876   12.95034439438660
C         3.17792384676160   10.00789663765195   13.98923306696453
C         3.21493342796106    8.65872003994526   13.68575335042256
H         3.15640332567273    7.93357899316463   14.48470848363234
C         3.31260561486368    8.21000825173991   12.38297208969942
H         3.31868030537798    7.15266474587205   12.16422293932128
C         3.41811576900815    9.13947226077788   11.36517849005343
H         3.51133195607395    8.78868662072594   10.34844436623746
C         3.41394191949117   10.49817122997877   11.61816540412351
C         1.85393775482403    9.80371090988480   16.12717232719077
H         0.95257247131291   10.06024531389756   15.57589796817841
H         1.75327597683796   10.18770266708154   17.14059938356215
H         1.93120161930273    8.72058902850747   16.17675788032306
C         3.08422875560534   10.40913441558880   15.44745256887181
H         2.98821092343039   11.51755088222139   15.51305398057112
C         4.36763323260962   10.00019757613090   16.17880192048704
H         4.54185995535030    8.93239960286418   16.06992837443743
H         4.29897572858385   10.22569821568867   17.24144447791981
H         5.22114266105680   10.53341757360927   15.76202567643781
C         2.23190847292003   11.68174179115861    9.75595034630976
H         1.87715572161584   10.75056553998760    9.31887512289731
H         2.33254629922401   12.42405612420979    8.96605699933185
H         1.48329043524676   12.02713916729187   10.46542174788054
C         3.57609516502467   11.45830426841783   10.45517748251202
H         3.93468145957353   12.42405015733325   10.82871890542003
C         4.62360740944360   10.98834208012587    9.44296683480965
H         5.53460042899044   10.68316412774237    9.95296918414622
H         4.86203265003284   11.80343198708964    8.76230487446080
H         4.26225242146704   10.15198879890057    8.85033413449552
C         5.35648647208638   13.71453529927090   16.09774398662641
H         5.21988331030864   13.21536590285936   17.06603961901529
H         5.62340418178057   14.75365046971017   16.36388806237166
H         6.29166273342849   13.28035891035482   15.71146977729526

