91
CSD_code = IXUSUP | q = 0 | S = 0 | Stoichiometry = C44H43BrFeP2 | MND = 8
Br       10.49373096675162   -0.49687502954011   -4.54297294803365
Fe        8.09376795637802    3.05407440378388    3.54951033559293
P         9.73003364796783    4.35040984397619    3.15361444711041
P         6.81466665532678    4.55717364636886    2.71542854187992
C         7.51959926097517    1.04109407153348    3.87001468958633
C         6.61876034953415    1.90698665132960    4.53517191325200
C         7.35964387643626    2.66600021730225    5.50443898274666
C         8.71425901082840    2.26247350744028    5.42871424354876
C         8.82820089660636    1.29924821698692    4.37731070269352
C         7.17697146363238   -0.04790110113922    2.90599762513329
H         7.75864923028464    0.05152666314101    1.99090500950923
H         6.11991343500754   -0.02852897358711    2.65394790586233
H         7.40744942015677   -1.01723254497353    3.34977428826987
C         5.12794862777259    1.88122107643856    4.43329064619725
H         4.70097579031215    2.79720816239744    4.83364182210435
H         4.73133751489267    1.04019692156047    5.00588735634962
H         4.80353151666384    1.77239283131232    3.40036453577487
C         6.74090772109886    3.50676692985555    6.57689427187081
H         6.08708865388702    4.27094552921565    6.15752802700059
H         7.50549381298255    3.99428211546558    7.17648010401516
H         6.13930664608454    2.88065945378976    7.23850740532503
C         9.79040298735841    2.62771488652125    6.39974500086579
H         9.89239214969424    3.70576652427100    6.51128787909873
H        10.74560186177071    2.21967801593666    6.08156309445084
H         9.55263648656529    2.20879912440570    7.37929088462333
C        10.05029226134005    0.53762781591872    3.98308441911121
H        10.00896228989098    0.30900601375488    2.92100057681115
H        10.12002375804422   -0.39929295398282    4.53843551631815
H        10.95054568444184    1.11985080136350    4.16550458776819
C         9.24272633430617    5.45580181159245    1.74686093954271
H         9.95965015726893    6.27442407291715    1.62337583551931
H         9.22064763719043    4.84862648955302    0.83955607391111
C         7.84270377545100    5.97178404162633    2.05537817298116
H         7.37663768023767    6.41177402376368    1.16948858828784
H         7.90170821035481    6.73868026454876    2.83292057299128
C        10.17116764126862    5.66470181852134    4.35483773856613
C        11.29258479114250    6.47788920224165    4.23408014780477
H        11.99237238327560    6.31267128729655    3.42578677371199
C        11.51129665605939    7.48915373851258    5.15195674572154
H        12.38345181374890    8.12026607993359    5.05901389661487
C        10.61585427271838    7.69824346624165    6.18991338565389
H        10.79406747732869    8.48945502558589    6.90340005719154
C         9.49478134081859    6.89401846782124    6.31158483233911
H         8.79452049538328    7.05639214748308    7.11904190997336
C         9.27756813058879    5.88088970703229    5.39480470497093
H         8.41212732403767    5.23488136052995    5.45774337924919
C        11.38141861546367    3.74630760211724    2.69739059687814
C        12.27468104810740    3.46123876261642    3.72830161147542
H        11.99731992788094    3.70139371296153    4.74604873347861
C        13.50593842925820    2.89556737305673    3.45759160502763
H        14.19222343490955    2.68198406062105    4.26476167896397
C        13.85739157898231    2.59858172466203    2.15036059468660
H        14.81718846027672    2.15161685651080    1.93666638276038
C        12.97505715514496    2.87734921940471    1.12014182931692
H        13.24658000785695    2.64778813765732    0.09976664391740
C        11.74204499974338    3.44481480596470    1.38912974025082
H        11.05751369775282    3.64641917055420    0.58070326916224
C         5.81992742520426    4.12475985057042    1.24217944521396
C         5.74494541766128    2.79067116402299    0.86657657940198
H         6.29727858876682    2.06537333164035    1.44300790008523
C         5.00597226636853    2.41581341865360   -0.24184123041528
H         4.95816411087133    1.37602243607059   -0.53230642890608
C         4.33224357166851    3.37445869856113   -0.97987272685782
H         3.75884072251461    3.08650054534253   -1.84902591781032
C         4.38903845147747    4.70667915216028   -0.59980800123570
H         3.85443282036434    5.45336702816919   -1.16951600473681
C         5.12482789662937    5.08241094577208    0.50849322468263
H         5.14638933442534    6.12011490903211    0.81518518750894
C         5.53332364667420    5.45864272851880    3.66547945086030
C         4.19976651833809    5.06243881738522    3.58116586103625
H         3.91635218358441    4.29182171953645    2.87853561378647
C         3.23502321430853    5.65423695135158    4.37551248560544
H         2.20482392093643    5.33931411914823    4.29200436475697
C         3.58628813005589    6.64480491097882    5.27755286000554
H         2.83293925982160    7.10701680128686    5.89804587859062
C         4.91077807489670    7.03537145732171    5.38218055786739
H         5.19416792706932    7.80310704134305    6.08787877611480
C         5.87685669774992    6.44134355151854    4.59038125524672
H         6.90645102083606    6.74954798401330    4.69683232571741
C         8.60803511692389    2.59117039424919    1.80419124158735
C         8.95419624463790    2.06568638871153    0.76498201353757
C         9.31083848775851    1.47208638158549   -0.46346887432809
C        10.44695377833010    0.66101699780816   -0.55752458492637
H        11.05424145157452    0.49776477809765    0.32165357808242
C        10.79744185190499    0.07993110651015   -1.75845824738807
H        11.67500589177207   -0.54516788963547   -1.83120775783056
C        10.00946222702230    0.30719311537961   -2.87479217090977
C         8.87920047971682    1.10559855858057   -2.80938254226846
H         8.27871062719367    1.26998854233285   -3.69172235072535
C         8.53300907018770    1.68593002181576   -1.60687478627279
H         7.65385616351480    2.31099678999431   -1.53710528089432

