69
CSD_code = IXUSOK | q = 0 | S = 0 | Stoichiometry = C29H30MnN3O6 | MND = 6
Mn        0.43157463893779    3.87844218943954    1.83833162196953
O         1.68325803146998    2.37946810665982    2.16101731863229
O         1.90971670189657    4.93949272537579    2.05465278518043
O         0.65406346186309    3.59567926015183    0.06121603448652
O         3.73318205278972    0.79144895045637    1.98354831195682
O         4.33720373278686    5.85501134304593    2.34559859746409
O         2.30187778215604    3.39860324635668   -2.00093597400692
N        -0.06382005587900    3.89150753744759    3.73065400388273
N        -0.72315182098216    5.38778080218138    1.62506496055043
N        -1.08890966173306    2.56523003988811    1.70255523433992
C        -3.79392287267798    4.44224004027489    3.54717774099580
C        -2.38900298184158    4.20103376551506    2.99462499202195
C        -1.33546763222281    4.49593271333457    4.08726713886914
C         0.60670071297097    3.29755548682674    4.68365922187865
C         1.76007394370387    2.50297622852388    4.54586864310088
C         2.42973173866292    2.06420527316054    5.71631569854022
C         3.51728120947534    1.25144876364961    5.64597785957567
C         3.99285505444832    0.80358399843375    4.39680218799164
C         3.37222247592439    1.17959623404930    3.23945597313259
C         2.22784535812555    2.07313409231794    3.25462639961852
C         4.85034569137873   -0.04259605688355    1.84120484517488
C        -2.13911414098874    5.12558808311107    1.77428122774391
C        -0.35642529441925    6.62835844184202    1.56199738041535
C         0.99094407382952    7.10130323987093    1.60793763823284
C         1.25154058444366    8.46946831253414    1.42350452075681
C         2.52669485258738    8.96277361023422    1.52303344070439
C         3.59126205295334    8.11225953039517    1.82885547826432
C         3.37641283822553    6.76484567359094    2.02639535742468
C         2.06068531599724    6.20858353899781    1.90012329338051
C         5.66485364705538    6.29302541323913    2.45545377090323
C        -2.24486237890649    2.72620003383183    2.56269350055960
C        -1.09837263077427    1.58007000831095    0.85581066548683
C        -0.14770081390511    1.38852976360260   -0.18028528914845
C        -0.12564005671502    0.19590467505313   -0.93005167114724
C         0.72587724564331    0.05148438390600   -1.98762713411956
C         1.56583915435592    1.10791291057579   -2.37316178962251
C         1.54712393819537    2.30303094387307   -1.69868806460493
C         0.70859943161490    2.47430184198370   -0.54535059580421
C         3.25656074168871    3.28459057724724   -3.02185171749825
H        -3.87186525957952    5.44227838977876    3.96699707649686
H        -4.02477258873116    3.72281759742304    4.32938824069481
H        -4.53518941276205    4.34078443854180    2.75804032133663
H        -1.21289681072197    5.58223145879162    4.19187775205946
H        -1.69453297341924    4.09738351942642    5.04635855294895
H         0.23353898627443    3.40777965898639    5.70758347876049
H         2.06090487575862    2.40156669773374    6.67522598511625
H         4.02846871995675    0.93309128919733    6.54200154924818
H         4.85545309413702    0.15477887615815    4.38037797917683
H         4.95589240045660   -0.21711178404451    0.77126857563170
H         4.70660523573811   -1.00290663247059    2.35040262278718
H         5.76181950388837    0.43219729259479    2.22222531004580
H        -2.51448736482257    4.63809004026694    0.86752811130058
H        -2.69106420521981    6.06478141442629    1.91727751601174
H        -1.12458812740561    7.40514662569553    1.50725362730591
H         0.42775852480566    9.13183524127031    1.19775858565162
H         2.71989639413916   10.01433031569810    1.37331510302997
H         4.58268517201524    8.53028433478824    1.91053329871980
H         6.24822183555509    5.40669961304789    2.70077152005272
H         5.78219246009396    7.03419304365721    3.25454199526004
H         6.03081463972106    6.71753094591680    1.51384793958343
H        -2.13327233849703    2.09770231327767    3.45751085185099
H        -3.15848505345332    2.41110298246286    2.03908354674781
H        -1.92379398490625    0.86253442740431    0.89509873669031
H        -0.78058826447373   -0.61235416785443   -0.63719377321934
H         0.75991438291184   -0.87246892200925   -2.54472048485136
H         2.22356066622157    0.96106031384807   -3.21608354624129
H         3.76857525359909    4.24522056397777   -3.05718782609520
H         2.78859876655007    3.08968502245393   -3.99413601999245
H         3.98419935003685    2.49432936714974   -2.80730023339353

