52
CSD_code = IXUTUQ | q = 0 | S = 0 | Stoichiometry = C22H19BN6ORuS2 | MND = 6
Ru        3.77726316068090    9.86529385180019    7.88830425794547
S         3.47289794360081   11.07280419032926    9.97068403546857
S         6.12613357818787    9.80282839992520    8.42142747761709
O         3.97097875580805   12.43082170785201    6.37214791876809
N         2.85812875128556    7.10599308336458    8.46655337234906
N         3.61228692375803    8.10156131798656    8.93467237832311
N         1.20737215692440    8.53118593894101    7.33467486095220
N         1.75596675838219    9.70684919874332    7.64319222479807
N         3.11312180549057    7.61021384492851    6.06498941255718
N         3.93119461345249    8.65524416109026    6.19272190200716
B         2.08142005066869    7.27901426981040    7.15725805459018
H         1.44290286391058    6.32442948166800    6.88498999980145
C         4.15000907310790    7.70079574456149   10.07717285561776
H         4.79762235731827    8.33948434237262   10.65121709813239
C         3.73223564436082    6.40104770508613   10.36121957725400
H         3.99258225303661    5.80374827116274   11.21019849220060
C         2.90990693483955    6.06322857452913    9.30793091722380
H         2.36667806628166    5.16191762343963    9.10861033701529
C         0.78370505113163   10.59481213982457    7.78831339311690
H         0.99998938526732   11.61541203536331    8.04725669470003
C        -0.44443257605599    9.97299787498939    7.56453036017963
H        -1.41715343218469   10.41682581442738    7.60672826387714
C        -0.12626832089870    8.66194847412755    7.27999788461288
H        -0.75616122123139    7.82749762768421    7.04769730186551
C         4.68740313327546    8.71986479325143    5.10584741540623
H         5.41722507306269    9.49845586537758    4.97895223115796
C         4.35498147657397    7.67406759313227    4.24560624587979
H         4.78523435551057    7.45276260452496    3.29111775700181
C         3.34728099214382    6.99472769252671    4.89758756820418
H         2.79241146324873    6.12639631430952    4.60651198580910
C         3.89847605079372   11.44207476804948    6.95173176384834
C         5.09687128158954   11.36465648868818   10.49578727108419
C         6.23806381871511   10.86501618054510    9.86072566410940
C         7.51077458127351   11.12195253807941   10.35133449463357
H         8.36434214444567   10.70773748043589    9.83443459786831
C         7.67640414412844   11.90756356202815   11.47326785696476
H         8.66679426321850   12.11663817195375   11.84619383373460
C         6.55408629007059   12.41778447690369   12.11851701315313
H         6.67325195626869   13.02935580474966   13.00053476480078
C         5.29238049680272   12.14887801391056   11.64323453226977
H         4.41647978484660   12.53834708917097   12.13837992566081
C         6.97463209846275   10.80633001256353    7.20895681853832
C         7.67363900404672   10.14874747942872    6.20666203275108
H         7.69628347959350    9.06882676080584    6.19314561919844
C         8.32884405902440   10.88594626240910    5.23631820548247
H         8.86853943423148   10.37711891279472    4.45154581614664
C         8.29625360190823   12.27011268377556    5.27694041569692
H         8.80841508134049   12.84416096596306    4.51973379764514
C         7.60934943807766   12.91826355957071    6.29087089129192
H         7.58326920872620   13.99667080238537    6.32539663424502
C         6.94597701202827   12.19127095951220    7.26244052419775
H         6.40565569930935   12.69361648927336    8.05183525213722

