85
CSD_code = IXUWAA | q = 0 | S = 0 | Stoichiometry = C38H38N2O4PtS2 | MND = 4
Pt        0.39388807199959   -5.49071238742348   -3.29132938196154
S        -0.95421898327206   -3.59381130712678   -2.87786625128873
S        -1.02209197764803   -6.84513792754526   -2.04201546947832
O         3.75350919810645   -3.47881157789649   -1.23016761831841
O         5.94053371154337   -3.75058409309266   -1.24771894117851
O        -6.03626350131943   -7.26142484852008   -2.27070424747603
O        -8.23087130739834   -7.51327392155491   -2.17349631191585
N         1.99849484473704   -6.76922075073441   -3.19653431602383
N         1.80521638361150   -4.40068275666108   -4.34901997513037
C         2.02912069314221   -7.93875070298496   -2.56780885654383
C         3.16190879244218   -8.42267336303311   -1.93820759342092
C         4.32709296561013   -7.65891648829298   -1.91484744893052
C         4.29484666423626   -6.45632586517749   -2.61772629985211
C         3.13937511658830   -6.04435713010703   -3.26430480495077
C         3.05152999509644   -4.80025823274721   -4.03577165849659
C         4.16637695752615   -4.07504307096692   -4.44308075496853
C         4.01885174946893   -2.90347020582232   -5.17321024249439
C         2.71142225624470   -2.53128972043911   -5.49871604054622
C         1.64764354912894   -3.29970660240170   -5.07662527709276
C         5.57289343851799   -8.04447558346079   -1.14724212703207
C         6.78849749581302   -8.00189283415714   -2.08381820688047
C         5.75730394546636   -7.02348666797199   -0.01431064042428
C         5.46985977304628   -9.44707004751322   -0.54356123354374
C         5.19418369182942   -2.06230179582598   -5.62840902878518
C         5.21637711165700   -2.05032574847391   -7.16410377503603
C         6.53258619139320   -2.60458998760062   -5.12087002674498
C         5.02135528538111   -0.63309923618810   -5.09717417717721
C         0.37582783982099   -2.69480449123367   -2.22402829899597
C         0.44611722729662   -1.29766853968602   -2.35780571999814
C         1.60402706527388   -0.62614397522093   -2.06714224731626
C         2.77229572541719   -1.31534526279940   -1.69347353692421
C         2.67137657659659   -2.70671748317444   -1.50329738464218
C         1.46655842298383   -3.36578224213846   -1.66712666034409
C         5.01747410427527   -2.96117976125763   -1.25866322415297
C         5.13298520481255   -1.52830733424924   -1.31446634870759
C         4.06054727782994   -0.71513890243602   -1.50873933810830
C         4.21163690338114    0.77083232453684   -1.55238961385460
C        -2.52552738943601   -6.67085340089223   -2.88738727314640
C        -2.55365603420753   -6.21777107234244   -4.21494312415025
C        -3.74341372309318   -6.08707567932891   -4.87961421234321
C        -4.95871495723933   -6.42539646848042   -4.26482951904189
C        -4.91718260461009   -6.90260892063232   -2.94046986170130
C        -3.71332602706264   -7.01954499298028   -2.26028959546249
C        -7.27949652436992   -7.17638894642660   -2.83794358486754
C        -7.34297305113258   -6.68599586675589   -4.19707005533630
C        -6.24457336876278   -6.32147914045276   -4.89916466728799
C        -6.35112664106662   -5.81943981751286   -6.30346127298013
H         1.10208639820334   -8.49748073045362   -2.55030656932751
H         3.10356824756649   -9.37803163285891   -1.44612267905268
H         5.15406025498052   -5.80771195117574   -2.60836501218028
H         5.14375680973849   -4.43399990303322   -4.17497538892695
H         2.51199835783035   -1.64496586834136   -6.07808364584663
H         0.62805348181777   -3.02199589733367   -5.31218385687435
H         6.99293848321004   -6.99053568438249   -2.42187260040428
H         6.62550135759988   -8.63674179839816   -2.95278958100541
H         7.66893006257193   -8.36065898082610   -1.55669111122218
H         4.89580063460055   -7.03721894646757    0.65018461460104
H         5.87649826055192   -6.01485921086905   -0.40138767886604
H         6.64283354569086   -7.27403421128105    0.56462973468220
H         5.32139313389987  -10.19720513064539   -1.31757279012960
H         4.65610495504796   -9.50776085381499    0.17493607212622
H         6.39297233012663   -9.68271033703292   -0.01929472407388
H         4.31092883832923   -1.60777642492616   -7.57052326045127
H         5.30596278708188   -3.06359994001303   -7.55013541710573
H         6.06686983154383   -1.47190589179063   -7.51638419234493
H         6.73911320876093   -3.59030854715736   -5.53170682755362
H         6.55063335846564   -2.65844943246579   -4.03445921392429
H         7.33296163110159   -1.93927833195111   -5.43607556245932
H         5.01862698563057   -0.64056218842304   -4.01016971705871
H         4.09399932175982   -0.18479596672122   -5.44324273946777
H         5.84673897971606   -0.01177859098386   -5.43619362082106
H        -0.42008193425167   -0.76884670994429   -2.72431831049255
H         1.63877006365013    0.44569927481363   -2.18198522122673
H         1.40070064237599   -4.42056216166360   -1.40744896930836
H         6.13141576249783   -1.13357569005700   -1.20925538974363
H         3.59100204241834    1.22876712687250   -0.78364586273981
H         3.89348795138184    1.16295010367451   -2.51747663627113
H         5.24670582901983    1.05502847637206   -1.38277023677555
H        -1.60923728917634   -5.97414845069461   -4.70513451161670
H        -3.74605354239737   -5.72606453721314   -5.89595770071907
H        -3.71493512985303   -7.37647068271085   -1.24312100632656
H        -8.33354373347913   -6.62873438222598   -4.62032220230746
H        -5.78967021894085   -6.46335579388362   -6.97902303707711
H        -5.94252510717182   -4.81260359538714   -6.37599983876917
H        -7.38994473133111   -5.79991369903331   -6.62140906369495

