60
CSD_code = IYACUG | q = 0 | S = 0 | Stoichiometry = C20H36NiOP2 | MND = 4
Ni       -0.67239995970410    2.63497039425900    5.93366124871217
P         0.11681206131034    3.79306950547377    4.33192737064193
P        -1.32457740479904    1.72351755536236    7.73518980864337
O        -1.53062110070703    1.48614281262477    4.72055697702245
H        -1.96035462971192    0.70574233474535    5.08074287530559
C         0.25313508140780    3.87382375986385    7.07964073380116
C         0.41194051924936    3.62015799743987    8.45197839735439
C         1.09022724147832    4.50836454428149    9.27480271690515
H         1.19524974038559    4.28737018727728   10.32917031432434
C         1.63332353312490    5.66869058030570    8.75567559655376
H         2.16378477743157    6.35715017057492    9.39769203207559
C         1.49147677077226    5.94138972339001    7.40763480442730
H         1.91327651868795    6.84783146471669    6.99320769684763
C         0.80946656573211    5.06287143859163    6.57734047893536
C         0.63948142270955    5.38080859422967    5.11409001401251
H         1.55230595501241    5.78664612294362    4.66887882010496
H        -0.15843595141262    6.12025714853876    4.99076980724486
C        -0.15814716763328    2.34552362833637    9.02026250454195
H        -0.64525387799450    2.50165596245608    9.98740909312771
H         0.64538913498048    1.61393933108331    9.15567789124429
C        -2.97058354094624    2.33390561762641    8.34400156942590
H        -3.10108103295244    2.04999907900552    9.39536148087058
C        -4.08597158262081    1.73862008474057    7.48966189862348
H        -4.19086194726901    0.66826025701465    7.65659473409155
H        -5.03850961557542    2.21220572635474    7.72322570329576
H        -3.86663115702582    1.91020099618672    6.43542433725423
C        -2.96224125447764    3.85493451048508    8.21715130145716
H        -2.21120027227992    4.30304446830187    8.86495964098016
H        -2.72584378021812    4.12961096058760    7.18510476805397
H        -3.93582977003859    4.26987967139631    8.47471879129562
C        -1.37973972927009   -0.12168036438797    7.97998893973417
H        -2.20978767293037   -0.48307804413832    7.36038919655700
C        -0.08312387639068   -0.70027682179040    7.41614177606411
H         0.76485448610163   -0.44586159822185    8.04994772651953
H        -0.14019592356237   -1.78521077514365    7.34389834871582
H         0.10153052517987   -0.29317992388165    6.42004769257742
C        -1.61330747427735   -0.55027890577207    9.42356111637037
H        -0.82232408879078   -0.18028732908837   10.07216047275418
H        -2.56760610380419   -0.18431637932796    9.79558501603096
H        -1.62095142944832   -1.63773786492302    9.48840049729383
C         1.69705991256173    3.12444034362170    3.62565374496401
H         2.21374344921018    3.90876512755319    3.05887595331006
C         2.56197011650214    2.68927613002721    4.80564283870692
H         3.47629463200486    2.20675146697512    4.46224951976705
H         1.99949119071742    1.97933696684823    5.41923981516057
H         2.83070855497623    3.53777530377449    5.43284278570836
C         1.37113969600883    1.93370757046563    2.72872558786119
H         0.63641212925125    1.30125926319332    3.22784422349878
H         2.26588292504081    1.34525003296773    2.53024431233269
H         0.95812386770163    2.25636114005413    1.77558323616045
C        -0.91610508208632    4.25244231754967    2.86310188728051
H        -1.06183491951787    3.31507230773748    2.31641249213270
C        -2.27880328359098    4.70450066240474    3.38034987562256
H        -2.66576570247231    3.94427063946298    4.05959902968073
H        -2.98283063859731    4.83256040648634    2.55979477375681
H        -2.20460733761230    5.64868356264126    3.91850486319508
C        -0.26988815621426    5.29210521062143    1.95558568908988
H         0.68346941665707    4.94142235947252    1.56686382982903
H        -0.10336348404112    6.22502980036273    2.49057052901475
H        -0.92357127622082    5.50131276626822    1.10948082313340

