85
CSD_code = IYAKIC | q = 0 | S = 0 | Stoichiometry = C27H53BP3Rh | MND = 4
Rh       -3.80226504981159   -2.41610842926446   16.96109946055826
P        -4.24345132900835   -4.08057089062937   15.50060386533470
P        -1.66144620208234   -2.28395929822842   17.62770250289080
P        -4.56029003741437   -0.66227534839204   18.12025266998320
C        -5.58354191343000   -3.05916718846876   16.09051808503134
C        -1.11291963959566   -1.02120454131781   18.90440624399151
C        -3.42453154107171    0.20957182883411   19.33435918621993
C        -4.16208536824686   -3.93053124207634   13.63495849295561
C        -3.92326765451890   -2.46131283194135   13.29963639732032
C        -5.40299076235417   -4.46430385135765   12.92887544781204
C        -4.64931483123853   -5.88613246456511   15.79923203784608
C        -4.71395045406818   -6.11092677680443   17.30552992186779
C        -3.59141991680074   -6.79109427769205   15.17630001623760
C        -0.32511100084653   -2.03323324044414   16.34179787481222
C        -0.65303380480655   -0.74323401853485   15.59871921411408
C        -0.28972067454299   -3.21207117360269   15.37590895917591
C        -1.10310518248490   -3.86679323539382   18.46413963382127
C        -2.14639525121576   -4.20367741156943   19.52712908494628
C         0.30792820181352   -3.89240218976758   19.03785632883228
C        -6.03491861234313   -1.00522434627735   19.21909455271873
C        -6.47133943127801    0.12362464337125   20.14455871586531
C        -5.74240074812324   -2.28780051700495   19.99205092996132
C        -5.11544819497628    0.79039651262951   17.08035399107994
C        -4.08198865094234    0.90128560240625   15.96404238019841
C        -6.50462577412635    0.58095431905394   16.48947181347932
C        -1.28917961394985    1.67812399852912   18.41965214339223
C        -2.06074556382877    2.82649060046850   18.19968946760468
C        -1.49891107074155    4.02793235673130   17.81343258193577
C        -0.12859136621599    4.13217758244465   17.64346966961704
C         0.66655900587480    3.02064360234473   17.86523275972307
C         0.09358644184719    1.82167846664340   18.24410763875861
B        -1.93089068460146    0.31811142172213   18.86046183277031
H        -6.08451550205801   -2.49103054461024   15.30472438911276
H        -6.32229787102128   -3.58783757506219   16.69739150314204
H        -1.32126227129433   -1.53152689734267   19.84820658147249
H        -0.03114347793014   -0.92123790727896   18.80646676777563
H        -3.89988234336709    1.15547600937179   19.59756170230526
H        -3.47800170651822   -0.44871485662857   20.20642248325593
H        -3.28393801518456   -4.50360679120826   13.31009770083738
H        -3.14217405524123   -2.05236632607936   13.94399489711455
H        -3.61523428718136   -2.34280132784854   12.26151617668014
H        -4.83056425776559   -1.88033319157222   13.45346801973654
H        -6.29955986378190   -3.98632134102105   13.32041562977881
H        -5.34366194034608   -4.25464403001089   11.86084841724944
H        -5.50360531678066   -5.53990314324524   13.05643339964004
H        -5.63119831875623   -6.09798964671454   15.35845338664834
H        -5.41692614165088   -5.42339853290498   17.77325035598899
H        -5.02925369857938   -7.12933241179288   17.53108029915616
H        -3.73124972869257   -5.94789570619358   17.74471234859889
H        -3.76968511575274   -7.82915530038490   15.45652251398323
H        -3.59900973371753   -6.72799078888504   14.09039478700837
H        -2.60100706077249   -6.50661266296377   15.53016879900015
H         0.64961094281825   -1.92931126783500   16.83248010285748
H        -0.64003086309100    0.10923851425245   16.27464895876945
H         0.06119890557017   -0.56053915577247   14.79642513408367
H        -1.65065576828643   -0.81810411638844   15.16595778926092
H        -1.30333555419284   -3.45359719882530   15.05178419823883
H         0.30455001061073   -2.96795175991253   14.49604936848933
H         0.14200066126621   -4.09538598438313   15.84161216923986
H        -1.17853712265273   -4.62405248072754   17.67335961965256
H        -2.03903876396006   -3.56132416054435   20.39987493275560
H        -3.14656193515025   -4.04945834696283   19.10893306156317
H        -2.05446407064769   -5.23746383006398   19.85811372817226
H         0.51699381788705   -4.87829291288735   19.45330727638963
H         1.05236360059072   -3.68684749499474   18.27209651763695
H         0.42154751796011   -3.16362156798227   19.83725921004479
H        -6.84484587077932   -1.22386115291747   18.51284206670131
H        -5.73689918361333    0.29339291089836   20.92864191587823
H        -6.61462017401444    1.05242117662293   19.59621346391825
H        -7.41565000306433   -0.13547564064966   20.62322388431348
H        -6.63882197404382   -2.66315084888670   20.48368083651768
H        -5.37569191283900   -3.04850839137515   19.29751233047386
H        -4.98117388232736   -2.12307577824036   20.75311599133588
H        -5.11236830133830    1.70726914611944   17.68072414623090
H        -3.09035804306405    1.08180772675409   16.37501389549227
H        -4.06055202189495   -0.04385910967000   15.41395522972235
H        -4.32550407352835    1.70698953579793   15.27226947922364
H        -6.70074306891061    1.32931413268144   15.72174990599727
H        -6.56708854117738   -0.40403529305575   16.03209569187764
H        -7.28165608780899    0.66360915890142   17.24589697563399
H        -3.13156591320995    2.77581663396655   18.32493465629845
H        -2.13021184488210    4.88943211158355   17.64642469865688
H         0.31550135446565    5.07062203866733   17.34450423997567
H         1.73818812582151    3.09025844699359   17.74100170658438
H         0.74229741901344    0.97460026940913   18.41342275866874

