98
CSD_code = IYAKUO | q = 0 | S = 0 | Stoichiometry = C35H57BP3RhSi | MND = 4
Rh        2.83116898013108    4.30640956710724    4.14183638457240
P         1.01153345475537    4.42137483990965    2.75507151722507
P         3.65536936978249    3.89882664009696    6.24405350570508
P         3.92024229793773    2.44184973427188    3.24358160626028
Si        2.54704525091070    6.58883515646643    4.57646503082211
C         0.27531668325655    2.79678434424788    2.26091298776575
C         0.82520201608927    5.32827300491843    1.15869363146643
C        -0.48029583544849    5.11198194486435    3.58605058945309
C         4.28010611124043    2.16599061452706    6.52679256279290
C         5.52063470989286    2.08424395023777    4.11125779006207
C         6.57861073020703    0.74451111372301    6.22273233580871
C         7.10286098718671    0.95802061100109    7.50177893276397
C         8.09351700733507    0.15216935224247    8.02969302345620
C         8.57999509263360   -0.91875740839107    7.29922665934204
C         8.07324804804899   -1.16388225639730    6.03439024957005
C         7.09951259679944   -0.33753200111500    5.50605497094902
C         2.22687213958286    3.79806188948189    7.45828411976984
C         1.09829754733923    3.02308539314609    6.77848176266159
C         1.71514757977577    5.16395904686035    7.89741997721828
C         4.93007724046908    4.89140761119543    7.18685891043318
C         5.14571345457242    4.53517577155026    8.65405921748188
C         6.24654632582678    4.82136746157011    6.42084732490000
C         3.31824483285944    0.70790416298874    2.82010939996858
C         2.63236802547677    0.09339450772997    4.03612910596882
C         4.35770276938434   -0.25559381963851    2.25922372634505
C         4.68282552874006    2.97664673548690    1.61000734252206
C         3.73322275638305    2.81427895100796    0.43004644401329
C         5.06180320026610    4.44711006704084    1.77543943222332
C         4.06353369060393    7.52017503103688    5.28797847015186
C         3.95451261388346    8.25956211922086    6.45839054279111
C         5.03215826832623    8.95461905872395    6.97764142427204
C         6.25313239592186    8.92578539452222    6.32515551801657
C         6.38172066933399    8.19734986119684    5.15521755650721
C         5.29685494347683    7.50260850896663    4.65091124772137
C         2.18987377107833    7.73051026688511    3.06790226835892
C         3.05635240149863    7.82890857725513    1.98599252016061
C         2.78505427483443    8.65453887921568    0.90981500497395
C         1.62497460354186    9.40983807096724    0.89037860256385
C         0.75131363526306    9.33614093380107    1.96162904692324
C         1.03836516522838    8.50789438508654    3.03229735150196
B         5.46377037568826    1.66837209664878    5.62613666831158
H         1.45647111749701    7.13022060393235    5.48264033144777
H        -0.72443432498602    2.93956631609775    1.85199681240652
H         0.89783833128849    2.30961229154663    1.51449958833106
H         0.21642804500172    2.15334363409957    3.13743468607493
H         0.82680130726884    6.39535267807589    1.36713333139035
H         1.64998880278803    5.11630267278166    0.48234624425675
H        -0.11434899268993    5.05422903452515    0.67917729192061
H        -0.30038510685179    6.15752555593090    3.81639877496819
H        -1.35256193757165    5.02778711313086    2.93861491018605
H        -0.66762095185580    4.57830440487411    4.51567683918164
H         4.43931946605681    2.01400006209085    7.59694948745953
H         3.41264006147475    1.55955287542124    6.25135086517047
H         6.13566902333897    1.42782819259235    3.49141365526730
H         6.01873115021429    3.06111274847567    4.10767172965298
H         6.74224071653979    1.79038417496462    8.08886962440046
H         8.48403360834845    0.35507781300976    9.01673909435778
H         9.34788317538821   -1.55648716298705    7.71204838918376
H         8.44423722732741   -1.99798531896163    5.45582736357281
H         6.72021874867560   -0.55020908331097    4.51657264022235
H         2.56896150221007    3.24286957841682    8.34055415224080
H         0.15826360527250    3.16274640517510    7.31008926818860
H         0.98356547097305    3.39630157890407    5.75152490314345
H         1.30572547737988    1.95504422291544    6.74142457553491
H         2.51634500606417    5.79513456993708    8.27235862741121
H         1.24856559462770    5.67165563239269    7.05986517198356
H         0.97387650144957    5.04520014305981    8.68805925104712
H         4.56519067558517    5.92352879064870    7.12710043273697
H         4.22514321380525    4.59686443194024    9.22761733786534
H         5.55782452603685    3.53512766412803    8.76535572774879
H         5.85808812248144    5.23620610388876    9.08824570083252
H         6.66823211820923    3.81713337346243    6.46351568710002
H         6.07960784971384    5.09171709038936    5.37919029648115
H         6.96936533140947    5.52059691959772    6.83850832194819
H         2.54960266521667    0.87261326914154    2.05582862906987
H         1.93677275692328    0.80756953542031    4.47666492956875
H         2.07569945185122   -0.79974620852100    3.75343193353529
H         3.36987562158005   -0.19025173365581    4.78571166657604
H         3.86171808396971   -1.15447480858460    1.89291457297282
H         4.91398602307899    0.18067398649220    1.43330880113288
H         5.05796008747022   -0.55877639043494    3.03334965934492
H         5.58970295666022    2.38776072154327    1.42331573392317
H         2.78659704472943    3.30369361241193    0.64837728467323
H         4.15849850133040    3.27645622466451   -0.46094717103029
H         3.54296670293568    1.76743579470374    0.20394595496579
H         5.88916070195381    4.56631379535304    2.47444825108468
H         5.36046084475020    4.88575154215571    0.82336568629869
H         4.19143745860654    4.99793417125282    2.16110383697895
H         3.00420080806713    8.28947844605588    6.97300391533078
H         4.92200077797419    9.52313258659863    7.89168536896868
H         7.09800990123367    9.46961619193561    6.72493819373567
H         7.33188889936871    8.17103715800652    4.63778168697831
H         5.41457758808652    6.93384702995427    3.73875107732514
H         3.96799895055510    7.25072013146170    1.97994682251249
H         3.47925951082966    8.71096840817179    0.08186298068653
H         1.40649000290665   10.05492121654425    0.05072932406786
H        -0.15384466713320    9.92876244670417    1.96256962731178
H         0.35096915454718    8.47141759182389    3.86669535658744

