89
CSD_code = IYAKEY | q = 0 | S = 0 | Stoichiometry = C29H53BO2P3Rh | MND = 5
Rh       -0.56229890795017    0.36621060014587   14.86378437769311
P         0.40905334917257    2.33359942749698   14.03794924867687
P        -0.76562877614419   -0.38837751204692   12.38879117367211
P         1.57498589218003   -0.61359701995988   14.84460434944397
O        -1.88508872108867   -1.77415413024678   16.49924683252470
O        -3.08704182085605    1.57270257435732   15.95285079497694
C        -1.28644677959972   -1.01620991530335   15.87385692676162
C        -2.09822327113360    1.23498542489917   15.46752954663634
C         1.89644673225262    2.09240968790995   13.01759549952204
C         0.58146560046758    0.32738981107558   11.38912639167033
C         2.42898933023988   -0.53870465755199   13.23744991255926
C         3.12088768094799    0.81071649385853   11.01172526699588
C         3.07209339177493    1.87572654322777   10.11063856505574
C         3.97570066350113    2.01830059649990    9.07390781515708
C         4.97538770970205    1.07929755618959    8.89104537067785
C         5.04305874181863    0.00084092440024    9.75377210802618
C         4.13031305200615   -0.12466868963681   10.78714777984978
C         1.02129497931389    3.54930659544039   15.33582166542740
C         1.53729184006538    4.87063072030725   14.77547320427197
C         0.04207000700373    3.78333279152662   16.48228957245507
C        -0.80092116817873    3.24203808996427   12.91674505281580
C        -0.20881326427835    4.11742542611678   11.81478537130379
C        -1.84465045390938    4.04048109682705   13.69434879408228
C        -0.55562248883860   -2.24165871603664   12.15050447956396
C        -1.67530911785509   -2.99410636318184   12.86698529529827
C        -0.42642922650564   -2.71457490154861   10.70529331827351
C        -2.38187028096201   -0.14124611212065   11.42755464658794
C        -2.28531919336219    0.76732633145931   10.20781520528601
C        -3.47406290411948    0.33230184301395   12.38369169228131
C         2.79513990371488    0.22158518085112   16.00430656404320
C         4.13718437434472   -0.47437115859078   16.20440478671417
C         2.16721854573653    0.58356121914831   17.34848267766086
C         1.55215909961448   -2.44154806483780   15.31040706880242
C         1.35525262806415   -2.64825420735928   16.81132493935801
C         2.72373409406140   -3.28607603122984   14.81512130160985
B         2.00282515207947    0.66583264979708   12.18380411414597
H         1.98038812205372    2.95373260274639   12.35563584478549
H         2.74657154460619    2.15532921963163   13.70388382249894
H         0.76099866873182   -0.32836822143232   10.53446825399862
H         0.19465402250701    1.26438175113414   10.98635116541839
H         3.49590699220725   -0.47351279576963   13.46830311928816
H         2.26071234988427   -1.49796711580190   12.74504484689761
H         2.29683971690744    2.62394078882350   10.21272772720329
H         3.89991043876878    2.86426230555660    8.40293643408050
H         5.68744314542719    1.18403383864319    8.08412352542327
H         5.81181972187474   -0.74938164506783    9.62002592165657
H         4.21447184437440   -0.98881906615304   11.43116669178243
H         1.88097029909181    3.00853301679032   15.75500732363287
H         2.06318170597887    5.41695888579773   15.55833114438702
H         2.23252963066551    4.70598297233820   13.95557329656431
H         0.72149716451206    5.49874782513524   14.42714057822881
H         0.56671164625546    4.21265277122762   17.33508081818948
H        -0.75237349749634    4.46808527934856   16.20041856418293
H        -0.40891381795501    2.84134486759565   16.79975950211558
H        -1.31805605795491    2.40242694211116   12.43279193264967
H         0.36158407420099    3.53125119041566   11.09978012304433
H        -1.02378063025637    4.59665663282743   11.27131423944035
H         0.42970558764711    4.90031126039782   12.21405665030606
H        -1.43399285868700    4.98534927130192   14.04221278329533
H        -2.69375165479153    4.26781101713085   13.04943758716135
H        -2.21399966127214    3.48476044459083   14.55148800462863
H         0.38517745314681   -2.47040512208097   12.66193483748428
H        -2.66541876460378   -1.13763231442303   11.07364027400421
H        -1.82307325369521   -2.59710285382962   13.87108223774697
H        -2.61730278600634   -2.91203503071488   12.32863221634507
H        -1.42994390048510   -4.05244935126060   12.94958307635095
H        -1.26726203369562   -2.39356672614308   10.09420707257013
H         0.49076711428256   -2.35111849265205   10.24909208392451
H        -0.39676980094143   -3.80371274440973   10.68658933087272
H        -2.06868005190440    1.79629883530093   10.48602644153108
H        -1.51512061520898    0.42246275883763    9.52189310479330
H        -3.23799097290565    0.76165915221469    9.67785374706808
H        -3.26788198356229    1.33757437448766   12.74800271247035
H        -4.44196363647399    0.34402337036256   11.88345618100699
H        -3.54050692528620   -0.33313359471180   13.24453273476908
H         2.99336301228747    1.15539821979637   15.46278866485374
H         0.64444622122918   -2.80443941250273   14.80741168638550
H         4.04208768379464   -1.35295098346357   16.83684761002724
H         4.58392681823997   -0.76741380070763   15.25704708914504
H         4.82549499157826    0.21244377824480   16.69711542113505
H         2.72273749614313    1.39337395257616   17.82016400088737
H         1.13220995359314    0.90800781819128   17.20850459471069
H         2.17244867296745   -0.26310723483688   18.02928773654576
H         0.65112085032347   -1.92663383487311   17.22086353086221
H         0.96550472360061   -3.64769937065517   17.00193956142354
H         2.29714350030999   -2.55328607514055   17.34556114669427
H         2.54492691329999   -4.32790617059081   15.08084414647808
H         2.83385871737077   -3.23486506183385   13.73521079585178
H         3.66084571203843   -2.98114222936478   15.26974635331836

