116
CSD_code = IYALAW | q = 0 | S = 0 | Stoichiometry = C56H30AgF24N3P2 | MND = 3
Ag        7.72019572832823    6.79487805954466    4.49918655874396
P         9.26028930805660    8.62452090846987    5.14961076580145
P         5.18888591060619    6.87439082129346    4.76940463404041
N         7.95753194995722    4.51133053280374    4.01038414044990
N         9.16593721552281    2.81976780446938    2.88950426799741
N         8.94058886864508    0.55934534526292    3.49607639778916
C         8.75447538811961    4.02809256108014    3.09744710413259
C         9.29743495711414    1.77094977815224    3.68482648417897
C         9.26434420499464    5.04301227431495    2.07678080656623
C         8.17675161902336    5.55562319383172    1.09847384934579
C         7.49748209098741    4.44487270852249    0.25576160927497
C        10.10065505941487    1.97401019179877    4.98113804255645
C        11.44884961447153    1.21058288233097    4.96745884555942
C        12.28056273160873    1.51239523428909    3.68794808138940
C         7.37570875287980    3.71125966560097    4.96879768101484
C         7.47799284468958    4.07670836101870    6.31535236891503
C         6.87251032340326    3.35299181117321    7.32697591691643
C         6.09831968688575    2.24095745194432    7.01269371242167
C         5.94140107979130    1.87354544509089    5.68032488729362
C         6.58271861426876    2.59204685750560    4.68128061923811
C         8.23646812557463    0.11128506423992    2.41145586151845
C         8.53548914139422    0.42296268988928    1.07777856530185
C         7.81728677545005   -0.13445394546970    0.02815511600871
C         6.77182729244677   -1.01469120018568    0.28392787946257
C         6.46108293197739   -1.34615664510770    1.59986057877226
C         7.19283756943681   -0.79740381336910    2.64136074734678
C        10.65366629154106    8.18164125849214    6.22926572255779
C        11.19750153649864    6.90996198078787    6.07178341156820
H        10.77098458381376    6.23144870111157    5.34387257803128
C        12.27243066190153    6.51622306369877    6.84651511421487
H        12.68922368973960    5.52818161809894    6.72346179166505
C        12.80407716759560    7.38758420374512    7.78394052484465
H        13.64104460966491    7.07991839091110    8.39260090364008
C        12.25889549537484    8.65116934011029    7.94857675893073
H        12.67165435096811    9.32626895131095    8.68390750074123
C        11.18378473343870    9.05286058013677    7.17617502532706
H        10.75094553353962   10.03484948102506    7.31159242642196
C        10.05622859634473    9.47360820386546    3.75239722883210
C        11.28551429217817   10.11626208078238    3.85104207949013
H        11.81627851647432   10.12547709785297    4.79260720427600
C        11.82768264552119   10.73275878539783    2.73729810948610
H        12.78328485891854   11.23022829050406    2.81255868211978
C        11.15370695599402   10.70756899034257    1.52669044047762
H        11.58613449061278   11.18384085266500    0.65973385674294
C         9.93081471101557   10.06330623939858    1.42344148819433
H         9.41101438540507   10.03317972322461    0.47771042981933
C         9.38526339250525    9.44650086078344    2.53313112737320
H         8.43291172373202    8.92694237639849    2.46515614308492
C         8.45278551586350    9.97039784264109    6.07481668052361
C         8.53709381084119   11.31472482712630    5.73806644574774
H         9.14219329996918   11.62575625949307    4.89802126410057
C         7.84013743638934   12.25214535689638    6.48236993775985
H         7.90812546426898   13.29853625457015    6.22295951806973
C         7.05761006972866   11.85452568824646    7.55293761468043
H         6.51366283120693   12.59016648762861    8.12594376034333
C         6.96896155677925   10.51198410728709    7.88954045014882
H         6.35621370398524   10.20286216842215    8.72316133303827
C         7.66072752719883    9.57408079662440    7.15047017031080
H         7.60517307364168    8.51818549882247    7.39270661837156
C         4.58946326639654    8.53704783694277    5.21855340062233
C         5.29332188723135    9.62014159705787    4.70058301157810
H         6.15655225277870    9.43340304428810    4.06804899321268
C         4.90207994826801   10.91259921490704    4.99238554986850
H         5.45159063397036   11.74804856107145    4.58579571746661
C         3.80945932327132   11.13072269181096    5.81601975807777
H         3.50632397976525   12.13914363246896    6.05394664503446
C         3.10460654579993   10.05633821764958    6.33440168365001
H         2.25056250691888   10.22824945519804    6.97267854007097
C         3.48657246498257    8.76058843791338    6.03578864849987
H         2.93286601741464    7.92363419981749    6.43726428440710
C         4.13008567777558    6.41521165196259    3.36258005057976
C         3.07477322120600    7.19792642154057    2.90988377141632
H         2.84077091151295    8.13095737289840    3.40232065747072
C         2.32666429027299    6.77811141985232    1.82341282278856
H         1.50634316763850    7.38739492409779    1.47368168907627
C         2.62373036746412    5.58507761524471    1.18563691397321
H         2.03606671233618    5.26409616481171    0.33911491750808
C         3.67985044120246    4.80479196973662    1.63003219485130
H         3.91890494433049    3.87512591973759    1.13614332832270
C         4.43418094196566    5.22210462381531    2.70923346159482
H         5.26738968457501    4.62392265733094    3.05230958294102
C         4.53179208358637    5.84688591377012    6.12319371242800
C         3.71378224470816    4.74078527942249    5.92647050001344
H         3.38791014386034    4.47449896945525    4.93118405917997
C         3.30584739834114    3.98360714503296    7.01240787156865
H         2.66960531497049    3.12539344239363    6.85552677520784
C         3.70853449265713    4.32234783281874    8.29319689859709
H         3.39004493595043    3.72637372395962    9.13436477987540
C         4.53219147717648    5.42058303454748    8.49273577230017
H         4.85635131704995    5.67955724894835    9.48917667192696
C         4.95169154975165    6.17228290138502    7.41294900052251
H         5.60287833178484    7.02622846637355    7.55544280449021
F         9.74393378054273    6.14590598309087    2.71986586621141
F        10.28647697164609    4.55842533053677    1.35981568898747
F         7.22058783251206    6.21488434914045    1.79610745981383
F         8.70244918795377    6.46523100387405    0.25427456382895
F         6.88953374202641    3.55490942855527    1.03630208072126
F         6.56400392029690    4.97952267533729   -0.53180373964322
F         8.36548744567646    3.80941644202222   -0.51071961523908
F         9.38015324489142    1.57514748181932    6.05701116182063
F        10.37537648228360    3.28352699022108    5.20150406663807
F        12.18725894023573    1.56953239031620    6.04172075029040
F        11.25367500135216   -0.11261393361087    5.05444561919817
F        11.82200834246964    0.83203587561820    2.64687507428179
F        12.25266512217837    2.80993907678704    3.38743383318805
F        13.55423622614486    1.17270718833869    3.86732077020068
F         8.17369265266961    5.18928056389204    6.62460604244904
F         7.01703510923025    3.73271512619851    8.59883555018955
F         5.48282016400512    1.55723167000080    7.97891447209832
F         5.15055998558454    0.85218037273627    5.36008755247599
F         6.37722475189474    2.23791920019695    3.40163732140595
F         9.54959420786073    1.24649748984898    0.79163495561504
F         8.12077380590844    0.18373018246352   -1.23492404635134
F         6.07120385371764   -1.54075425908565   -0.72711227952153
F         5.45945450728703   -2.19484231866289    1.85097726346384
F         6.87845094702985   -1.11488029498746    3.89940725568398

