86
CSD_code = IYATAF | q = 0 | S = 0 | Stoichiometry = C44H35CoN2O4 | MND = 6
Co        1.30167970124500    9.64328538357694    2.67003868917427
N         1.98436528150055    7.84679461718029    2.60386352324348
N         0.63701698914214   11.45683860242834    2.74462493035568
O         0.65230493611227    9.44509749237425    4.40385307083567
O        -0.35013085375679    8.94840692765877    2.12316367303691
O         3.00525131268586   10.15519274791206    3.31835434924553
O         1.78897193632972    9.99476260370980    0.88244760908745
C         0.84672020946797    7.06428336023828    4.59028605222565
C         0.36626577605637    8.34323128674376    4.99612518298460
C        -0.44947110445881    8.38296329139890    6.15712323466994
H        -0.81711052513142    9.34794177828160    6.47217852780295
C        -0.77025549173167    7.24708895366931    6.84529141055127
H        -1.40336687113659    7.31370140372296    7.71939208223356
C        -0.29841289813274    5.98449514700170    6.44559976822208
C         0.50391499079252    5.91913045708689    5.33592371538055
H         0.88456578836856    4.96256383646738    5.00273086590415
C         1.70293989909375    6.93100818081555    3.47082922284097
H         2.16854548486367    5.95112941988855    3.33807703174902
C         2.97425213164868    7.55865261058791    1.64223402914673
C         4.29621662446031    7.55365416378595    2.02262748305985
H         4.54999341431882    7.74135727510053    3.05576062266630
C         5.31096819987498    7.34998829568674    1.07941256652096
H         6.34033261990559    7.37290323670002    1.40471086594090
C         5.00069794062481    7.13245312567661   -0.23312605760600
H         5.78022402061458    6.98167902741862   -0.96592404673084
C         3.65517565335698    7.09205434949920   -0.65536619649544
C         3.30589498267010    6.84428995516373   -1.99987150086404
H         4.09820339664186    6.68404764307422   -2.71763410152150
C         1.99615281123132    6.80465862588263   -2.38748988452825
H         1.73924009722855    6.61487941021800   -3.41981332149156
C         0.97408530227068    7.01121533347605   -1.44823841857982
H        -0.05596351740707    6.97864704224573   -1.77135385392469
C         1.27439212405762    7.25262027109170   -0.13638258071691
H         0.49385066233660    7.42986970847092    0.58693309787422
C         2.61754662876894    7.30317673957841    0.29022863258841
C        -0.67791949142324    4.76332685965299    7.22876169914340
H        -0.21941820951191    3.87306658971991    6.80599202245241
H        -1.75951971428505    4.63111404441072    7.22589607980488
H        -0.35777505841726    4.86044397760289    8.26564761857932
C        -1.70674569130339   10.86849241172172    2.58873585613866
C        -1.50109710325205    9.48800556594424    2.29776682655966
C        -2.66166319167588    8.68257552410061    2.15833797732595
H        -2.51457781336393    7.63629029095989    1.93616662729648
C        -3.91633694359430    9.20097959929093    2.31132013478638
H        -4.77724972894321    8.55464963638394    2.20914244351842
C        -4.12122710228096   10.56113588586286    2.60189701021754
C        -3.01819685463660   11.36542510011497    2.72620407595666
H        -3.14221468883139   12.41731931646596    2.94790180535742
C        -0.61700829082175   11.76555329688539    2.70137649652116
H        -0.87601608292799   12.82635238228175    2.75212693548149
C         1.57795519293422   12.50552991060206    2.70856427103863
C         1.79556414445315   13.16396409446083    1.52000294299421
H         1.20713586714459   12.89820044354452    0.65284159204183
C         2.79345226017972   14.14074891822869    1.41408150499408
H         2.95214019195583   14.62742045047090    0.46313603935302
C         3.56255996086486   14.46112627024279    2.49622148491611
H         4.34641570440471   15.20006863311686    2.41516465449512
C         3.34125119020914   13.83962100989745    3.74269387386445
C         4.10506092635054   14.17130005576151    4.88145369633513
H         4.88152210413414   14.91669617008043    4.78215171776992
C         3.86969178789534   13.56514798651740    6.08293066088911
H         4.46259148517118   13.82326529261023    6.94886568432606
C         2.85597572660418   12.60196457421701    6.20212940073060
H         2.68192810270005   12.13229993451003    7.15914230583732
C         2.09632498517281   12.25458783630198    5.11989485898971
H         1.33133632994649   11.49857136136741    5.20035862716270
C         2.32532061091508   12.85612747826396    3.86563265510953
C        -5.51536196774401   11.08830594597624    2.76621959142568
H        -6.01425620802494   10.59007111476672    3.59707571032621
H        -6.10213984727933   10.90316915428900    1.86707706507687
H        -5.50534026441471   12.15766285787082    2.96020361536404
C         4.01218902461421   10.78561830982044    1.23662865463508
C         3.99766291638219   10.61107708984404    2.65844218238972
C         5.17608148426067   10.99275579577273    3.35882831319056
H         5.16882681134543   10.87664337555369    4.43187024161113
C         6.25930169047200   11.50120819336717    2.70694993238451
H         7.13455063200178   11.79017756659505    3.27238594723672
C         6.27528663225569   11.66833089203146    1.30664997694608
C         5.16027291721987   11.30850150790007    0.60265647127924
H         5.13378073045271   11.42245171418711   -0.47253809746920
C         7.49546123942034   12.23079622827927    0.64185678472106
H         7.72733827484573   13.21604680070580    1.04451751239068
H         7.34560400001782   12.31997355252226   -0.43074905599753
H         8.35689598251114   11.58784394594071    0.81999468390198
C         2.87310036212461   10.45369280873658    0.47345549365480
H         2.95182732986116   10.61383994043078   -0.61277487793079

