47
CSD_code = IYATEJ | q = 0 | S = 0 | Stoichiometry = C18H16Cl4N6S2Zn | MND = 4
Zn        9.42525846724430   11.40198791743706    8.94523471691179
S         6.04697159197321    8.70414671886001   10.47159350709758
Cl        9.06896631845525   12.43750458810925    7.00340832440305
Cl        3.35745866392399    6.79509338086537    9.51462910854126
N         7.43129003661198    9.37831333879879    8.43772157743526
N         7.91801069000521   10.11166836606636    9.44521018383524
C         7.32675820309197    9.89476731377108   10.60161214871828
C         6.47586791927049    8.59999313336892    8.75714943387234
N         7.67009680530881   10.48404910621246   11.73155347982074
H         8.41255704331326   11.20387281869713   11.69254922432075
H         7.14967488702111   10.32280261905642   12.57440696112010
C         5.73042093751323    7.73744951076968    7.80695341746556
H         5.60816112590472    6.73793880334703    8.22696833333517
H         6.30508240783814    7.68318052886644    6.88200078958082
C         4.38157485169102    8.36031494177718    7.54452658529795
C         4.25539109198823    9.35607721937352    6.58390148608794
H         5.13185757318774    9.65565095736838    6.02912088175989
C         3.25293764630371    8.00372108629196    8.27492273720062
C         3.03663298814849    9.96294476584354    6.34231348242674
H         2.95965499198770   10.73388840524185    5.59153588914426
C         2.02578182755278    8.60177917472713    8.03680032444436
H         1.16464952791664    8.30103189617932    8.61279815970326
C         1.91957645081785    9.58180288307382    7.06668962059355
H         0.96453120470300   10.04922293937303    6.88275437934564
S        12.80541096252348    8.70545252026901    7.42031565990872
Cl        9.78349356558185   12.43950098399041   10.88600730760592
Cl       15.49406340335731    6.79536223632501    8.37843687866609
N        11.41960521777087    9.37885406857766    9.45342767346615
N        10.93356102423191   10.11254504536188    8.44582937157454
C        11.52590983622089    9.89632753232558    7.28984492155009
C        12.37559332523102    8.60100316484612    9.13451228960562
N        11.18332438192558   10.48587610809297    6.15975126885845
H        10.44013922700492   11.20471259511918    6.19804872428560
H        11.70413467497490   10.32468227769561    5.31714318919030
C        13.12039210637537    7.73811935722803   10.08494688803533
H        13.24265745670252    6.73862222659909    9.66485873334418
H        12.54524304924843    7.68378619398281   11.00959167073788
C        14.46927297417544    8.36054959290169   10.34821449107462
C        14.59518953121341    9.35609567173126   11.30909264332892
H        13.71850236410342    9.65575037546258   11.86349231890990
C        15.59821360184393    8.00379863945931    9.61836172800032
C        15.81395972831934    9.96263569965881   11.55142802618437
H        15.89071863066684   10.73341802571413   12.30239288265145
C        16.82540312250935    8.60146749917432    9.85729586689550
H        17.68676149770986    8.30061735540581    9.28170325587831
C        16.93132530197178    9.58130531892951   10.82763360777340
H        17.88636176456134   10.04851509767111   11.01211585001377

