85
CSD_code = IYAVAF | q = 1 | S = 0 | Stoichiometry = C41H40OP2Rh(1+) | MND = 6
Rh        0.81273827698764    1.48129975986666    5.11295138106856
P         1.29879940723044    3.62503256943335    4.45138897323356
P         3.81493849540642    2.33626494718603    4.08328851706597
O         1.35786581644798    1.90187867427494    2.42046263247847
C         2.66953010068845    0.97478680092708    4.17108517524750
H         3.19025094355619    0.05122366523434    4.43937444072035
C         1.42268450123619   -0.45156220299175    2.46204526286471
C         4.50065440682278    2.74074520415726    5.70150157565702
C         4.26011956772139    1.93414130019307    6.80619811957306
H         3.66201899146465    1.04098053503251    6.69566792775194
C         1.79313768849768    0.88499853818581    2.99297916213928
C         1.86922593857328   -2.76324172997539    1.97709234288921
H         2.53548284762873   -3.61194098485337    2.01105660772587
C         1.75725267807561    4.67923045223741    5.87563272598531
C         4.77782829111994    2.28636707915282    8.04002061822113
H         4.59238286202237    1.66067945037895    8.89978191048726
C         2.06540961572639    6.02706895075411    5.71786417180294
H         1.95616889879449    6.49468686926691    4.74804529883790
C         2.27468888068307   -1.55280503737395    2.50967836234598
H         3.26532475911993   -1.46426896660435    2.93329438875313
C         0.17837946815149   -0.57736425691155    1.84395755038646
H        -0.45248414577312    0.29738549257605    1.78207825119884
C         2.49318412996214    6.76951459641485    6.80253824522777
H         2.72721839999621    7.81601187862827    6.67806944818891
C        -0.22710781736972   -1.79143917823745    1.32642807915098
H        -1.19654036466938   -1.88331083042570    0.86055062317700
C         4.83439239404014    1.75301820810221    1.60561906260292
H         3.80012493862229    1.81381098739894    1.29371971618073
C         5.53277060607582    3.44014024933089    8.17165067801308
H         5.93179242922720    3.71607384227412    9.13536846886274
C         5.82397808350636    1.43750271051499    0.69447703350912
H         5.56781653818159    1.25949807858863   -0.33859105241663
C         7.14449808338720    1.34686007530210    1.11011332992843
H         7.91604508399339    1.10109846614140    0.39703566440385
C         2.31086341163154    4.83431455692250    8.21157347528358
H         2.40423380030037    4.37177760837198    9.18262809052755
C         0.61634792656061   -2.88905973038185    1.39845601703859
H         0.30387818745392   -3.83902725265788    0.99276748824501
C         7.47642398437199    1.56365190926534    2.43785055115085
H         8.50368050979289    1.48456763457393    2.75884112860917
C         1.88057119041026    4.09099685357144    7.12747369819579
H         1.63674891204020    3.03811319938285    7.23730241097505
C         5.27580888992102    3.89065205294842    5.83075313873705
H         5.48404924234344    4.50336198786029    4.96351933892468
C         5.78460259876780    4.23973411730538    7.06711378049069
H         6.37998500751331    5.13368029758510    7.17052196115116
C         0.14836542980738    4.68523481678098    3.53127275719406
C         0.84575033634831   -0.06827764703242    6.63128541278293
H         1.87798506865778   -0.36553013665442    6.82252651557049
C         0.23058043721171   -0.59923460807615    5.51079813228165
H         0.82677122353771   -1.25440645522239    4.87799755007400
C        -1.33613959146486    1.72360313467149    5.06165674781754
H        -1.54492186077918    2.49444970605198    4.31639109629670
C        -1.08071664370905    1.32195337976332    7.57300517645080
H        -1.99009345119840    0.72743549856742    7.48573781431106
H        -1.22011095902395    2.00210817198422    8.41445789801829
C        -0.74720436837928    5.47771998981137    4.24844680790396
H        -0.70610590715229    5.49328479062680    5.32936870670072
C        -1.26174545437023   -0.80886325476912    5.38955177100233
H        -1.67072873585705   -1.02564077866664    6.37702344552278
H        -1.44094019052360   -1.68501859980266    4.76456670335746
C         0.07243279145942    4.65048338309221    2.14256886518833
H         0.72020726557086    3.99386818284621    1.58400331006202
C         0.12946180120848    0.41686295303577    7.86898181861894
H         0.84400734641992    0.96561192179243    8.48755133643408
H        -0.18986443459352   -0.45443890451551    8.44990260707045
C        -1.98299557838835    0.39630851797451    4.75726721037673
H        -2.00328148427824    0.26771494642030    3.67354680007082
H        -3.02366287506543    0.42951277218059    5.09605538334954
C         6.49242922898396    1.87896141486170    3.35870777154475
H         6.74551954367880    2.04409815975664    4.39656178859262
C         2.92227842627620    3.81784859764653    3.53396966712007
H         2.78289478100932    3.79791400265295    2.45264852712329
H         3.45456427644884    4.72291879083176    3.83606412557175
C        -0.85787937992940    5.43288172809069    1.48164140074285
H        -0.90727073222950    5.40898915739222    0.40344131682974
C        -1.67575607600900    6.25471059342158    3.58179304087838
H        -2.36007411424334    6.87240563359760    4.14341426636176
C        -0.90263090671745    2.13513853994361    6.31007228406487
H        -0.81195940556521    3.20866360603413    6.47348584525725
C        -1.72791712566119    6.23924566032495    2.19692486564073
H        -2.45153215130046    6.84854184126937    1.67760199463749
C         2.61981150015606    6.17407878493943    8.04833873473212
H         2.95451512572972    6.75818809311790    8.89172378264603
C         5.17109238766459    1.98564418626552    2.93862094908970

