162
CSD_code = IYEFIC | q = 0 | S = 0 | Stoichiometry = C60H94LaN3O2Si2 | MND = 5
La        2.94467884005700    2.94482123499131    0.00036612503616
Si        5.86868001281655    4.68654769387613    1.21884956187597
O         3.91514229116215    1.09147764082483    0.74379016755250
N         1.64835865178515    2.28956088507489    2.07182660994510
N         4.64960367823466    4.64962958072551   -0.00011703964998
C         4.00246032595075    0.33531064330608    1.78477827899343
C         5.07286968463347   -0.61135760375946    1.95671328764205
C         5.06614184843368   -1.44334971209279    3.04676739666212
H         5.86774091345163   -2.15276824262222    3.15690247983561
C         4.07533684977948   -1.43690703212603    4.04455579517480
C         3.07535719309726   -0.51539249981595    3.91393982047812
H         2.29364562811514   -0.43839966837749    4.65365895344958
C         3.01718971914811    0.38263006674962    2.82508115060940
C         1.93088710762576    1.29721253756679    2.85955506047210
H         1.25129899144688    1.13406479771711    3.70706715901882
C         0.45468498557400    2.97864058470445    2.45670956970099
C        -0.79345744325230    2.47012569400933    2.07923041984498
C        -1.94212049689303    3.09276870269049    2.54989370210388
H        -2.90944309843364    2.70081535962150    2.27557100957557
C        -1.86549491881088    4.19765702092771    3.37264178383051
H        -2.76717898634248    4.66640460345031    3.73739522717740
C        -0.62929585685507    4.70545123646642    3.72579282651041
H        -0.58007958019290    5.57356995060915    4.36287530081193
C         0.54181172047974    4.10376990501952    3.29038583773077
C        -0.90742502031783    1.26806574809501    1.17162888592978
H         0.09828171677623    1.00670684049351    0.82438574178584
C        -1.48083601298248    0.06988614823755    1.93257655201884
H        -0.82638209466332   -0.21113947514290    2.75526322190862
H        -1.58415574727102   -0.78475607566867    1.26716486019386
H        -2.46129677425255    0.30576779680453    2.34003416350183
C        -1.75929994876303    1.58988432681571   -0.05825619009593
H        -2.79526961240176    1.77227948942256    0.21646398553045
H        -1.73511532728960    0.75774326310785   -0.75833925410175
H        -1.37446008825492    2.47286155669455   -0.56256973620573
C         1.89591169853914    4.66811555384231    3.65373858960058
H         2.61372255241561    3.84206225767970    3.69643922635383
C         1.92422381189371    5.37089364726762    5.01126524040837
H         1.38878621311526    6.31654904952619    4.98120625571972
H         2.95467665547654    5.58227562081051    5.28848277664896
H         1.48343261143319    4.74294249674479    5.78252711513939
C         2.32888487935100    5.63597052195817    2.54625425664440
H         2.41255881602943    5.11452276072459    1.58246221068983
H         3.29764898312093    6.06914070320270    2.78128204632037
H         1.59775206537498    6.43677588631675    2.44675817848155
C         6.20060276245326   -0.68265073053210    0.93359706652420
C         7.27904488613157   -1.71413711067341    1.28650923515082
H         7.74910636231700   -1.48860038344214    2.24126525504575
H         8.05229540393089   -1.68852489299562    0.52111361628413
H         6.87265317138164   -2.72290786818481    1.31264901774229
C         6.88177840685872    0.68720194681007    0.84389148689923
H         6.16143049228471    1.45862264445622    0.59022610600321
H         7.66045418840749    0.66946309765542    0.08413773852974
H         7.33939642205941    0.94083713508501    1.79789274676842
C         5.61479404572181   -1.06744796471738   -0.42797197587761
H         5.13441219733721   -2.04222481346137   -0.37116524424053
H         6.39972798390644   -1.11517159267598   -1.17971677358680
H         4.87777754812651   -0.33593612892134   -0.74000019057562
C         4.17239367958651   -2.42828949500769    5.19297582189207
C         5.48952109739156   -2.20305321626169    5.94841964979343
H         6.34948502345831   -2.36728646219703    5.30530852015362
H         5.56067919215089   -2.88722053384603    6.79155540476775
H         5.53579882392570   -1.18352466792497    6.32526816855879
C         4.13447860697894   -3.85486242548410    4.62726294726974
H         3.21061760889551   -4.01420655395075    4.07509423591735
H         4.18479373722515   -4.58160202861018    5.43553518629156
H         4.96791877402308   -4.03645048892556    3.95450230583163
C         3.02022943203561   -2.27999795964214    6.19037743453170
H         3.01916183833628   -1.29011725245100    6.64061493526451
H         3.13267665381054   -3.01200280524461    6.98769418284058
H         2.06139862464514   -2.45340315807953    5.70740516858101
C         5.31469425193640    3.57212830914335    2.68147823153216
H         5.09914096664137    4.16070320963890    3.56743540980977
H         6.09053190144865    2.86317672633711    2.94832889312739
H         4.42186020276684    2.99675624177177    2.43231681065484
C         6.22557023194695    6.41057746976168    1.97706532493889
H         6.72594963664009    7.03988438924940    1.25013329137877
H         6.87481419545593    6.33280336571516    2.84377020332621
H         5.32432384521029    6.93003962390344    2.28324407151397
C         7.58732118603161    4.09287767871003    0.60132411785631
H         7.50195310310205    3.35675911319751   -0.18959029250558
H         8.17302821681554    3.65206564277717    1.40159039809061
H         8.15424021472182    4.92874722605236    0.20645587047454
Si        4.68656733772707    5.86878575600592   -1.21900222882452
O         1.09155432214363    3.91518861509763   -0.74378800235365
N         2.28960827700826    1.64839142679299   -2.07181385467478
C         0.33539195161685    4.00249828396854   -1.78477976208949
C        -0.61130678282310    5.07288875362391   -1.95669441913395
C        -1.44331450940178    5.06615104752644   -3.04673568769626
H        -2.15273703752867    5.86774779995483   -3.15686346366501
C        -1.43688581891639    4.07533915125904   -4.04452209703238
C        -0.51537921244781    3.07535564722435   -3.91391082224164
H        -0.43839935625397    2.29363826958715   -4.65362486753946
C         0.38267016209213    3.01720369405703   -2.82506829773592
C         1.29724272862987    1.93090438975424   -2.85954605840755
H         1.13406047584456    1.25127895604583   -3.70702197050717
C         2.97866565841474    0.45469529242685   -2.45669848201533
C         2.47014342007263   -0.79344676156960   -2.07922042748732
C         3.09279001947142   -1.94210714479943   -2.54988915168938
H         2.70083904918115   -2.90943066599231   -2.27556911496074
C         4.19768361417837   -1.86547640433660   -3.37263117949272
H         4.66643395820491   -2.76715826421788   -3.73738446096086
C         4.70548277243380   -0.62927703111511   -3.72577491072941
H         5.57360532926384   -0.58005727409925   -4.36285105605247
C         4.10379928628982    0.54182864594890   -3.29036607489393
C         1.26808415438883   -0.90742039383061   -1.17161662900470
H         1.00672192679730    0.09827970952104   -0.82435673345504
C         0.06990725842310   -1.48082430266382   -1.93257502799778
H        -0.21111963302437   -0.82636642033733   -2.75525862514503
H        -0.78473367819438   -1.58414591698913   -1.26716348986809
H         0.30578616517770   -2.46128441324803   -2.34003595869867
C         1.58990064140132   -1.75930842039069    0.05825989685669
H         1.77229263751867   -2.79527697984431   -0.21646773002491
H         0.75775447774705   -1.73512589664481    0.75833545506820
H         2.47287263108124   -1.37447452463685    0.56258655954768
C         4.66813826358299    1.89593974063009   -3.65370076428229
H         3.84208351285259    2.61375547587273   -3.69639546857158
C         5.37090537466411    1.92426573063465   -5.01123212234827
H         6.31656175873209    1.38882969916625   -4.98118749180703
H         5.58228129934310    2.95472133678535   -5.28844277781930
H         4.74294729808772    1.48347901515384   -5.78249006369254
C         5.63601415955036    2.32890416069393   -2.54622443828789
H         5.11458581416520    2.41256871245338   -1.58241359387784
H         6.06918349545164    3.29767164206879   -2.78124957996183
H         6.43682099506616    1.59777166889447   -2.44673825354101
C        -0.68260544494580    6.20061588776324   -0.93357392380027
C        -1.71409582521909    7.27905488295522   -1.28648814589429
H        -1.48856605142599    7.74912304684191   -2.24124343041000
H        -1.68847871619654    8.05230223874621   -0.52109039404732
H        -2.72286806031553    6.87266614535942   -1.31262020248936
C         0.68724634248002    6.88179421798129   -0.84388095665977
H         1.45867042838986    6.16145285402530   -0.59020813793720
H         0.66950185109891    7.66046793176846   -0.08412760501872
H         0.94087874273128    7.33941577678885   -1.79788269276179
C        -1.06739369107713    5.61480413393848    0.42799709792326
H        -2.04217528102508    5.13443042718967    0.37120102489998
H        -1.11510596790149    6.39974074337278    1.17973820457032
H        -0.33588514343466    4.87778638306033    0.74002808829280
C        -2.42826835876918    4.17239201773899   -5.19294081636552
C        -2.20303859132545    5.48952176145484   -5.94838288904418
H        -2.36727784575507    6.34948525461325   -5.30527298092134
H        -2.88720412940650    5.56067570866552   -6.79151961851450
H        -1.18350967757218    5.53580504190660   -6.32523043008284
C        -3.85483851260796    4.13446044197798   -4.62722310618865
H        -4.01417346222870    3.21059343304319   -4.07506183968747
H        -4.58157836900913    4.18477405742745   -5.43549432254433
H        -4.03643458422708    4.96789336685264   -3.95445587565379
C        -2.27996172761221    3.02022871207306   -6.19034163325814
H        -1.29007817160637    3.01916829341854   -6.64057349456343
H        -3.01196191262873    3.13267202528238   -6.98766208770052
H        -2.45336467159961    2.06139624907428   -5.70737166996078
C         3.57216349316832    5.31488788452423   -2.68169009600085
H         4.16075788711950    5.09943290755534   -3.56767154752304
H         2.86319787070758    6.09075930804568   -2.94844361270741
H         2.99679069896414    4.42201794772112   -2.43261749651175
C         6.41062247159580    6.22564087659920   -1.97717116332657
H         7.03988853102984    6.72597277393692   -1.25017316884503
H         6.33289312226271    6.87493859728246   -2.84384038846792
H         6.93009241499331    5.32440346242662   -2.28337082438519
C         4.09289264035159    7.58740689152101   -0.60144008009362
H         3.35676184094620    7.50202167371198    0.18945997232233
H         3.65211410677052    8.17315956841787   -1.40169337028090
H         4.92877520082142    8.15427848500259   -0.20653614668137

