66
CSD_code = IYEKUU | q = 0 | S = 0 | Stoichiometry = C28H28CdN2O7 | MND = 7
Cd        1.98342033767092    2.89041951850111    5.84556159579035
O         2.67260973220197    3.55891715474569    7.79880745777215
O         1.90078566336563    1.17648286156486    4.04886108124666
O         2.91489515283197    1.46062722156536    7.20711902899632
O        -0.03338773080210    2.26280868765422    6.13611256746567
O         0.04768920536676    3.21521281294123    4.15600376625059
O         6.66398133839466   -0.32776459740876   14.42273332515998
H         6.19884504726461   -1.11175692071250   14.73821062170069
O         0.39625277561565    7.92707269097508    8.58657520651829
H         1.16846785117504    7.63516703551102    9.08601366940144
N         3.97658169771621    3.17652495338329    4.77858239720044
N         2.07294598901073    5.05367455213960    4.97763687069442
C         3.03492118970476    2.38474288877172    8.04071542080934
C         3.64862122541088    2.07633571016763    9.40204746874320
H         3.91793952209152    3.01251870148101    9.89192674171344
H         2.88269991573549    1.58040361192021   10.00289485118117
C         4.86480735565504    1.15245409809793    9.26744582539037
H         5.65259955293559    1.67813739679517    8.72317447049930
H         4.56438312303294    0.28158419229910    8.68247584742991
C         5.36119108525839    0.73231436992078   10.62003822480553
C         4.81967805767819   -0.37437509682545   11.25955935689289
H         4.05942964402707   -0.95835741488215   10.76130100700022
C         5.24050061347270   -0.74342340046814   12.52386859924293
H         4.81067666879406   -1.61090947737141   13.00868311645770
C         6.21745859769434   -0.00224435641210   13.17626869252006
C         6.76670345833696    1.10902661954455   12.54607852728448
H         7.52545093467684    1.67590751451316   13.06205098800117
C         6.33721821129268    1.46641872215791   11.28360691970222
H         6.76981649078120    2.33186226832645   10.80252689902215
C        -0.57776102248723    2.86816795896871    5.18058638054467
C        -2.07358831993742    3.16933941180482    5.26718791511496
H        -2.61087550579383    2.29999955775172    4.87947415233858
H        -2.28443490130165    4.01866210125173    4.61518096970417
C        -2.51533851810095    3.45210536311097    6.70909384061929
H        -3.59156028096293    3.64097433223469    6.71861978174017
H        -2.30459926725814    2.56987889370671    7.31437459200992
C        -1.77395185343177    4.63406587235603    7.26744591984524
C        -0.63923678672685    4.45476519237623    8.05040125104524
H        -0.31587501706557    3.45707652130326    8.30948501210669
C         0.09256547200479    5.53930259334663    8.49989516446110
H         0.98548411858826    5.37634924993959    9.08736883185945
C        -0.30817069479547    6.83087253870983    8.17980102121857
C        -1.45747363925116    7.02391923398536    7.42015098112413
H        -1.76868450234242    8.03132722374747    7.19150530998829
C        -2.17407365150246    5.93180891531834    6.96767324036773
H        -3.06121433693928    6.09240030503033    6.37126390340002
C         4.95995809127236    2.30163762781575    4.87964830109930
H         4.73639058578892    1.41101417266375    5.45281482561292
C         6.20205117582579    2.50523562289206    4.29463487139449
H         6.98223034627363    1.76732651284806    4.39253212838529
C         6.41210681380544    3.68021120161946    3.59073364841037
H         7.36782360198508    3.88446521068005    3.13056541034160
C         5.37819362408748    4.59523038630422    3.48604533439809
H         5.52815804941315    5.52522978810575    2.96126853508644
C         4.15480302784937    4.30303780514666    4.08982283650291
C         2.99608035351080    5.21551052317402    4.02736127208306
C         2.86119481844981    6.18601889076104    3.03593621951055
H         3.59203254936333    6.27739003405972    2.24810503864024
C         1.75165269321203    7.01450190999384    3.05582053132998
H         1.62067471613184    7.76767531436267    2.29273064714973
C         0.81761309770122    6.85618004819331    4.06527752643540
H        -0.05605579669110    7.48471252401939    4.12632212178409
C         1.02008924188809    5.85007239639392    4.99962840161037
H         0.31135706218188    5.68062124338928    5.79700649333389
H         1.46777284215601    0.48485638737802    4.56301552271102
H         1.18727910790865    1.78467481571040    3.77504152165850

