58
CSD_code = IYEQIN | q = 0 | S = 0 | Stoichiometry = C23H30Cl2IrNO | MND = 8
Ir        4.16295105289062    5.24982638999919   17.65588486636758
Cl        4.48418634003595    7.50408108245397   18.18342751528579
Cl        2.61672839548918    5.05134994083717   19.39615998211089
O         2.63245026230118    5.88392652107503   16.26411073998588
N         0.54728740962171    8.45096221621026   17.63285565351138
C         1.77566462398476    6.81723588878258   16.33696900806997
C         1.42747766514022    7.45055167891456   17.54075707740195
H         1.90476536010703    7.10775224116820   18.44085036413994
C        -0.08240317185813    8.90266941630128   16.55434102913528
H        -0.78235626008881    9.71226582749284   16.64633820958624
C         0.15466130415283    8.33750989388793   15.29051809081751
C         1.08911152160807    7.28396478292126   15.15305159518102
C        -0.51608013164056    8.80104704353370   14.13729202118589
H        -1.23159115781757    9.60400321710786   14.23903995763350
C        -0.26352333909042    8.24242065033184   12.91435739609568
H        -0.78037994778032    8.60363027897793   12.03749525595133
C         0.66520766514485    7.20087077190618   12.78499810489272
H         0.85325120963085    6.77423829233785   11.81116388008884
C         1.32877005825830    6.73048414744764   13.88855932694387
H         2.04761603889201    5.92924645945637   13.81504519860252
C         0.34956351987062    9.02640600543876   18.98766414820776
C        -0.07459830551463    7.89932767025620   19.93547340369867
H        -0.30927722315489    8.31746912743418   20.91022972752085
H         0.70539254301693    7.15621852378042   20.07110268716871
H        -0.96201525461479    7.39894350884896   19.55319200288540
C         1.67671190524356    9.65168632778436   19.42573990269406
H         1.58549150762153   10.02534055125032   20.44143230250296
H         1.93660635618915   10.48204903138639   18.77251256183030
H         2.49355327984493    8.93605885064810   19.39594830470727
C        -0.73507320573998   10.10384166451634   18.99742407165514
H        -0.84295457008823   10.46919561533043   20.01530573251935
H        -1.69799188357083    9.70610080164967   18.68388040664961
H        -0.46673493522606   10.95319680851440   18.37328215571848
C         6.32240937811683    4.92099268438774   17.11997216841198
C         5.96235357206274    4.27549956892347   18.36138296997010
C         5.03357631931251    3.21685076982720   18.05451459979418
C         4.71115332151718    3.31317259455505   16.67959104075693
C         5.51805134318748    4.36550515847170   16.09964037125571
C         7.39908839459150    5.94575063758084   16.98808101495489
H         8.33650084084559    5.54599497087794   17.37564293730038
H         7.14904654254888    6.83954236184177   17.55981680737364
H         7.54188022480288    6.23512681323477   15.95033678583472
C         6.68270436542628    4.44343095679992   19.66041017515736
H         7.56472533732667    3.79954462831083   19.68501768291060
H         6.03617861675275    4.17671241323672   20.49301735719105
H         7.00323952937289    5.47452571559718   19.78860144896389
C         4.56904306602621    2.19068075537326   19.03362134490944
H         5.43050755845341    1.70499825659409   19.49201319867162
H         3.95587317181570    1.43633431113608   18.54846621174946
H         3.97903802989226    2.65172110791346   19.82567521276856
C         3.83125544977002    2.40246901289496   15.88957641165275
H         4.43671136118361    1.67680663387705   15.34237383768064
H         3.24749335860647    2.97094643866298   15.16836426752985
H         3.14233578783128    1.86537034158489   16.53644855839832
C         5.54521608308837    4.68091448708504   14.64166918903287
H         5.99342271219348    3.85427887989038   14.08732505573801
H         6.11383064417173    5.58589105528041   14.44462178598801
H         4.53239635822235    4.82826821803964   14.27031688529203

