101
CSD_code = IYEREK | q = 0 | S = 0 | Stoichiometry = C40H43F12MoN3O2 | MND = 6
Mo        1.87234592580470    5.39095475660413   10.85647842797208
F         0.94675747374083    8.31156230550896    8.93458499174242
F         1.51305903300640    9.98024888458055   10.16531541681881
F         2.34933666910124    9.75750165495427    8.20667614586347
F         3.54932567073735    9.51732382802647   11.83912848545210
F         4.36040652975777   10.25941118584069    9.98921911242254
F         5.24175961075396    8.56012156513228   10.94700050500518
F         5.31312234123009    6.22833814719392   12.48069290468284
F         6.30791513762830    6.09052210264506   10.56700734253558
F         7.00918358628237    4.93657773762166   12.22927497529934
F         5.43472408128311    4.20688578187293    8.90933885462390
F         6.69997821088756    3.02992269958990   10.19459325682888
F         4.68625344651530    2.40103210874149    9.78293924961490
O         2.59068289693760    7.31564140248923   10.78583155926425
O         3.72892014354222    4.81865747494402   10.88329400249785
N         1.63959751713025    3.36211496634444   11.58371356293366
N         2.13269632596196    5.48748291213971   13.14347916436814
N         0.21841474170649    5.70547573176451   11.36006801843295
C         1.75625669316116    2.25863736805070   10.84196202086462
H         1.85787712732369    2.41106066134294    9.77610920671753
C         1.73321642945698    0.98007299144913   11.36598971699248
H         1.83157628544795    0.13229162707640   10.70851815380000
C         1.57856815039930    0.81971606029188   12.73815776213535
H         1.55005343905738   -0.16139858913385   13.18572790653347
C         1.47680248357348    1.95554732658455   13.51926549939421
H         1.39630728489175    1.87474623682533   14.59188956491053
C         1.51530935030056    3.21646687147669   12.92034718865480
C         1.51374305873315    4.44460504361881   13.71881917410255
C         0.95270278086123    4.53456425822827   14.99229739767944
H         0.41455963024846    3.70209202473296   15.41611696749131
C         1.06329447533886    5.72473598915863   15.68817764274672
H         0.63040116589811    5.82491905477117   16.67127011203976
C         1.74110456254655    6.78259127876486   15.09765952255771
H         1.87180242277160    7.71668170498819   15.61948873835516
C         2.24828962949372    6.62050253017186   13.81776944360240
H         2.77083659085300    7.41846057521533   13.30612736304443
C         3.11838880514373    8.18352448032140    9.89167230048578
C         3.87386017225407    7.55749477013794    8.71032472436231
H         4.58719203070650    6.82949917316699    9.08721543147510
H         4.40111742899619    8.32236030740556    8.14417576201712
H         3.15501653973098    7.05256697465846    8.06804270635961
C         1.98338277641390    9.07326451834769    9.30359719148255
C         4.07168050775067    9.13676142965336   10.66736794230730
C         4.89510819373005    4.26086844527515   11.24810258982423
C         4.82498762990482    3.29243963788810   12.44850307410652
H         4.43104080623234    3.82930664126938   13.31027104348954
H         5.81711810233840    2.91178977007141   12.68245351409418
H         4.17143556395449    2.45617380918237   12.20906959062503
C         5.89936755801513    5.38889356284372   11.62253998235798
C         5.45114117281253    3.48064541261831   10.02692972771555
C         1.68332746004833    4.99892521165114    8.93966025023416
H         2.63834161549911    4.68269092352760    8.49288290614482
C         0.62860899874471    4.81828520991725    7.88284261005046
C        -0.68515660439433    5.49645169536043    8.27080546257742
H        -0.55518863335699    6.57274451480436    8.22115035646840
H        -0.95052690905531    5.24636706711180    9.29286019446988
H        -1.48521098087835    5.21022082153503    7.59071203270764
C         1.07840614361345    5.41189082166113    6.53379668345207
H         0.36046476099986    5.15507434958619    5.75718738348749
H         2.05757347608678    5.05185133752986    6.22991147044862
H         1.12476719654944    6.49538036347495    6.61540163813169
C         0.49857648065367    3.30117620186446    7.77609207722931
C        -0.60461191284773    2.62003440631549    8.28141288573882
H        -1.43049864059723    3.16720644844181    8.69936796815806
C        -0.67183448487428    1.23755489105940    8.24522496558666
H        -1.54397102256245    0.73632228751094    8.64100895544760
C         0.36167398402201    0.49744089392202    7.70038057838822
H         0.30728373136489   -0.58087655477291    7.66844709021690
C         1.46346974343011    1.15914212145182    7.18549676211776
H         2.27703409301610    0.59816945640408    6.74908842184229
C         1.53091727057950    2.53995132273003    7.22664179511666
H         2.40853304470295    3.02131988109703    6.82311230269845
C        -0.74353816748331    5.84985743769846   12.28001165101235
C        -1.56930690600523    4.76710231426343   12.68778811174189
C        -2.32355557746420    4.88905650425027   13.84189481058081
H        -2.93029767098252    4.05862890992459   14.17033502878378
C        -2.32516269476213    6.05820038941298   14.58059846017474
H        -2.89948300370255    6.12390368286533   15.49282235771452
C        -1.65031600761804    7.16903321738641   14.09965681309699
H        -1.73447580904492    8.10462328847942   14.62989140555706
C        -0.88224024848170    7.09762972372280   12.95518109140878
C        -1.72401869368628    3.55234793185279   11.80281993273103
H        -0.86521918636333    3.51434721048284   11.11969024018461
C        -3.00291977634196    3.73490459930347   10.97427035069361
H        -3.86492364753294    3.82165341858905   11.63272819916783
H        -3.15569760062021    2.88103041355120   10.31767298831336
H        -2.94480199885458    4.63889518542639   10.37330564131046
C        -1.80765165530581    2.23328456836378   12.57304261293091
H        -1.05074204227055    2.18346476654006   13.35145481683458
H        -1.65679741928525    1.39777767176227   11.89238732992887
H        -2.78471226006552    2.11620338662516   13.03571115428895
C        -0.28665790468289    8.32125182022779   12.30759259119100
H         0.65130642341955    8.02618458186188   11.82117575159108
C        -1.27035292389057    8.77173388363012   11.21761805657793
H        -1.36713173527906    7.99776307678166   10.46010158663118
H        -0.91606821512953    9.68276479255563   10.74472859640549
H        -2.24983925878943    8.96490806920588   11.65341288257867
C        -0.00695347903577    9.47741800368079   13.26322421128377
H        -0.93250061233484    9.93747418689634   13.60374474331406
H         0.57562531937343   10.23471758515077   12.74502447236631
H         0.55973575113376    9.14275851485284   14.12823438223020

