70
CSD_code = IYEWUF | q = 0 | S = 0 | Stoichiometry = C29H31BrN5O3Re | MND = 6
Re        3.01442355490892    3.58106263007273    3.93769414080415
Br        2.28453274489404    5.96007482625371    4.37540480310478
O         1.43707978051343    3.79355532069057    1.29131497018313
O         3.44655244089765    0.53059287674637    3.76041231593291
O         5.64785904865086    4.15284015778593    2.42018758124998
N         3.77763217817244    3.59432000367922    6.04347434429926
N         3.24776219276862    2.82548830186017    7.01719154244465
N         0.11178081597225    4.82921239821047    6.99465118601402
N        -0.76844240731593    5.16777126749044    6.03709267296073
N         1.03309366727159    3.06034143789444    5.31504967676902
H         1.09121809942866    3.82308202399799    6.02647120397111
C         4.64695278153623    4.41604617767554    6.62087817480223
C         4.66305371563902    4.17991398630368    8.00536136691819
H         5.24923716549970    4.68958771828161    8.74058498791300
C         3.77046655348922    3.16233159186697    8.21425873297347
H         3.45677328743878    2.67621371041349    9.11609061617443
C         2.38747485130665    1.72586017459271    6.80644602883595
C         2.68348134367631    0.53240593098052    7.44701518835196
H         3.57828434214963    0.46635734281319    8.04876400058031
C         1.86172064088967   -0.57774586957381    7.31295020394085
C         0.72397699552560   -0.45730570526882    6.52780639459479
H         0.05869082049164   -1.30043545442905    6.41809806682422
C         0.42291364372896    0.72368642408285    5.87591033542315
H        -0.47579944061996    0.78805686439721    5.28319315009925
C         1.25480979915496    1.83072645342115    5.98347722601757
C         2.21576836677496   -1.86227365809033    7.99475999576687
H         1.42655428496285   -2.59821913268561    7.86893058570138
H         2.37809699670521   -1.70063066829861    9.05931196763017
H         3.13598648291704   -2.26726388552600    7.57515086101748
C         0.19598196559350    5.84905899177775    7.82774595245462
C        -0.65769816408107    6.88295438707147    7.40165579058253
H        -0.80480682509774    7.83814095245850    7.86017141709141
C        -1.25066371753647    6.41289191176549    6.25929617120423
H        -1.93668763368902    6.89254484753057    5.59369378634447
C        -1.05964910730465    4.30688093794533    4.97090676970895
C        -2.21955988898445    4.50167397039052    4.22697758004319
H        -2.90291570989658    5.28747597304153    4.50865934477663
C        -2.52732901388214    3.70874836603889    3.13283877175716
C        -1.64504393100925    2.69671321306545    2.77501784119401
H        -1.85154452703837    2.07974681889578    1.91412872097307
C        -0.49445717400530    2.48198896569714    3.50549017220471
H         0.20664886333902    1.71561060451871    3.20301244553530
C        -0.19080398157851    3.26349843331221    4.61531466051725
C        -3.79201977948856    3.94028648173998    2.36565525207641
H        -3.99162830208735    5.00434149445087    2.26123826951624
H        -4.63543726668383    3.49030749629079    2.89039417340477
H        -3.72985367274202    3.49497152577211    1.37641800979898
C         2.04766533474340    3.67168573466901    2.25252046286187
C         3.30831929594594    1.66987403637854    3.82885532395474
C         4.67486080222211    3.94310832487421    2.99369686073834
C         5.52597649679426    5.36574291784463    5.87270959321680
H         5.21539321962433    5.38526663721064    4.82286623029291
C         6.96699141716975    4.85089266974716    5.93178571023945
H         7.02833859758809    3.84237235318445    5.52747378115261
H         7.32961299534325    4.83959794867564    6.95759621338983
H         7.61279410323124    5.49628947435601    5.34224783492906
C         5.42143551234093    6.78487088539458    6.42895655074573
H         4.41753766530709    7.17511038188316    6.27998577020492
H         6.11720745440832    7.43422500284307    5.90384423211316
H         5.65779538252411    6.80997616469444    7.49016375851223
C         1.12645258522835    5.81750384178145    8.99413466487347
H         1.56239949279573    4.81256405977032    9.04266512819004
C         0.37840694321291    6.09886139657352   10.29699145323119
H        -0.41419504421911    5.36902994894173   10.44940210520207
H        -0.06567157396882    7.09099825884421   10.27325378406698
H         1.06331469193079    6.04849994999134   11.14051149794059
C         2.24812237806434    6.83375713744611    8.77254068293990
H         2.73497302325495    6.65300117888874    7.81799185091122
H         2.98881929690218    6.76030173885670    9.56561792498526
H         1.84678304829251    7.84398133971257    8.76204113479291

