72
CSD_code = IYEXUG | q = 1 | S = 0 | Stoichiometry = C30H33N5O3Re(1+) | MND = 6
Re        7.19677525594457    3.53983912348127   10.09708835632639
O         4.31116571749877    2.45134904571113    9.88724629617155
O         8.30114922478019    1.77281743307991    7.81479560925411
O         6.48270666697592    5.67588296276050    7.97637415060278
N         9.10159129924046    4.47843914608853   10.54311716925889
N         9.14014622282580    5.80698282117082   10.75701860600065
N         7.56750695699626    2.19591888882174   11.80671648834900
N         7.91765641069885    2.60438006302243   13.04672993746683
N         6.69432741898103    5.06312139755529   11.93603222673778
C        10.33655521762123    4.01621260026358   10.71090566193748
C        11.18512148842788    5.07844062469671   11.05724737328384
H        12.23387216272303    5.03005309955706   11.26020006696625
C        10.39016134480024    6.19699972318572   11.06830717685101
H        10.62194419617501    7.21862723185640   11.29064103430430
C         8.01335069230012    6.64661208103397   10.61299252172517
C         8.15121540454512    7.81663254702134    9.88289474790289
H         9.11036217397321    8.04760508802794    9.44464349755852
C         7.07282208981050    8.66805682141542    9.68378561682233
C         5.85066931982924    8.31104267206547   10.24010672917231
H         4.99414387536092    8.95035696295498   10.09387678006109
C         5.70251041746910    7.15382288935819   10.98403164541543
H         4.73368679670896    6.93032245044237   11.39775916682679
C         6.77534802834228    6.29521788903052   11.18334985638176
C         7.21870820001033    9.92826588808608    8.89783598677260
H         8.13854072852787    9.92678548603257    8.32026675827676
H         7.23568358086609   10.78672254424804    9.56910352894934
H         6.37667774700170   10.05495889279863    8.22182244351520
C         7.33868002015186    0.88441804197956   11.88163098657523
C         7.53475471587414    0.44762140087543   13.20128299056233
H         7.41808198992863   -0.54573464498530   13.57845997375237
C         7.89793175969984    1.56041066736180   13.90729711176439
H         8.10280932129129    1.68317574746599   14.95094778624718
C         8.31062174065079    3.89980823284237   13.43854370484641
C         9.34057422631287    3.98684390103985   14.37539042501391
H         9.84972225388939    3.08338411009554   14.67490905136495
C         9.73489252261832    5.19346508656730   14.92644669241703
C         9.05118070230531    6.34134960318047   14.53682815686580
H         9.30455294533100    7.29311348697034   14.97651549679352
C         8.05748497193242    6.27477735142487   13.58488691854907
H         7.54749949238330    7.17999004009340   13.28900452307053
C         7.69377078226496    5.06925449110926   12.98826734053881
C        10.85585480765975    5.26804257051709   15.90870097493337
H        10.55954629300104    5.84792724713510   16.78013467754664
H        11.71270437265903    5.76783823555624   15.45801958543728
H        11.16625115538622    4.27873462064616   16.23234490767389
C        10.70957026554881    2.58585147951429   10.48883927940455
H         9.79166550093995    2.01144030942039   10.30976775195487
C        11.59057844373763    2.48355726559138    9.24052397361190
H        12.51817754290114    3.03275017587487    9.38050671793842
H        11.07333814613681    2.88750329700458    8.37344308185250
H        11.83256205667532    1.44311798155419    9.04211837470989
C        11.42664703390821    2.00731341969244   11.70910549583678
H        10.79926740942116    2.06575700509908   12.59591631785336
H        12.34993430403154    2.54620332429939   11.90463349465083
H        11.67167099673535    0.96340391699192   11.53214101211361
C         6.95262139275706    0.00451868679342   10.73674401733904
H         6.77049374954142    0.62082806742336    9.84928829509085
C         5.66770963263331   -0.75949379333021   11.06477365692218
H         4.85913084924837   -0.07179428906278   11.30022773756887
H         5.81486834916659   -1.42707670011358   11.90932817780539
H         5.36987135625552   -1.35514289113039   10.20690393573223
C         8.09847163605603   -0.96478344817485   10.42955893114431
H         8.30345251699927   -1.60356198236603   11.28490364696612
H         9.00557331282714   -0.42218173860235   10.17400239935086
H         7.82828383909219   -1.59399640689449    9.58674605397439
C         5.38000695393650    4.79320479169113   12.53801359536423
H         5.11308757045997    5.55842527030410   13.27425082355958
H         5.41310350494000    3.82866451108254   13.04648961757206
H         4.61295703380403    4.74527235938478   11.76570912407845
C         5.38643429299957    2.83201976574537    9.93983512895222
C         7.86223430777387    2.40094622343160    8.66232034704849
C         6.76997528970049    4.88476683512864    8.74730827476028

