56
CSD_code = IYEXIU | q = 0 | S = 0 | Stoichiometry = C25H22N5O3Re | MND = 6
Re        2.94447798340518    2.89206474835249    5.44511646621578
O         4.55665951669004    2.49129193508490    2.84006217527921
O         1.04144826492870    5.08690465984039    4.37752335345652
O         0.87600820758619    0.83748865783905    4.40730873582246
N         1.97047404810216    2.87619789760493    7.49135877274362
N         1.69075913300043    1.69939613701319    8.07720928948567
N         4.57034566371818    4.23452099564075    6.15450206893881
N         5.51614989256249    3.85902191054350    7.03148499180328
N         3.99616479826643    1.39548176141816    6.62458361730486
C         1.65079310114741    3.83147047721197    8.35614284513584
C         1.15837589785512    3.24963663205482    9.53225894716876
H         0.82525770380698    3.75855602405780   10.41282709428903
C         1.19828227912106    1.89351621021871    9.31206687629721
H         0.93750608355974    1.07187959996800    9.94776198375238
C         1.92884631440639    0.45490132936844    7.45370815803528
C         1.00899978252130   -0.57196342270374    7.55129685690909
H         0.09639985401001   -0.42365492152519    8.11112549001906
C         1.24014715278568   -1.78324150383493    6.90867711892119
C         2.40115974605524   -1.93023913221779    6.16141592521924
H         2.58576428370307   -2.86182247220293    5.64695381031289
C         3.32988259608087   -0.90960918726074    6.06217650408725
H         4.22898435325293   -1.03472859162113    5.47827996354364
C         3.11310575650253    0.30235540843699    6.70456940028288
C         0.23577187724176   -2.88929743721411    7.01998302454949
H         0.53380178145418   -3.74449328726356    6.41987476432295
H        -0.74119011699195   -2.54912538481599    6.68004080132224
H         0.13542733713600   -3.21060375247765    8.05648083090007
C         5.04687822283445    5.30564063576816    5.50403588113447
C         6.32401018399257    5.60698128495387    5.97492506323997
H         6.96368904751499    6.39913389522961    5.64548183442429
C         6.59105491722904    4.66148542593028    6.93766832747955
H         7.47310858649473    4.50119611993245    7.52226879683612
C         5.38072185049549    2.85174014669872    8.00677819016219
C         5.98063299071538    3.09468522233860    9.24011058881124
H         6.43855257170114    4.05879413956604    9.41106264430490
C         5.98474928370465    2.16205629261583   10.25682548229472
C         5.37231112176062    0.93512931664837   10.00092069989157
H         5.38267506294602    0.16694826969522   10.76142344235876
C         4.74254390394117    0.69029289875848    8.80991457227531
H         4.27879981787171   -0.27266445853785    8.64989828433974
C         4.67874620845727    1.64669499488164    7.76387365113837
C         6.63002347339232    2.43990485050650   11.58077376841020
H         6.97893356122144    3.46845544005490   11.63522603865441
H         7.48284168352920    1.77816779192066   11.73455496317406
H         5.92614213394809    2.26797120306427   12.39462215601229
C         3.94677325745690    2.67230442814085    3.79640127934099
C         1.63623199540344    1.59734277391412    4.81073661125543
C         1.79109898813147    4.29286831288056    4.73996652198241
C         1.79660271658981    5.27810229103961    8.04895986175704
H         2.55146316471007    5.43065627113137    7.28000091410092
H         2.07618977682048    5.82647894450596    8.94575501019344
H         0.85169407859032    5.67906730243596    7.68153727830765
C         4.30847608932645    6.04717307766950    4.44738924381970
H         3.40286189524446    6.49956369880922    4.84926612217015
H         4.02036222537868    5.38160136224087    3.63371524281925
H         4.94442789869113    6.83502277569123    4.05251766319314

