57
CSD_code = IYEXAM | q = 1 | S = 0 | Stoichiometry = C25H23N5O3Re(1+) | MND = 6
Re        3.62756985570081   -1.35605044319323    4.26099734892984
O         6.03557271507447   -2.06101787071235    6.06542691861599
O         5.60393564718329   -1.21187156487094    1.88441573562795
O         3.02528243366444   -4.27104968643009    3.42831421256538
N         2.30543204449564   -1.24445798043993    6.00556400262969
N         1.69692646421790   -0.12733436605100    6.45967002726238
N         2.04745980996306   -0.41005549219064    3.07659149480717
N         2.33718849312629    0.68359645416263    2.34273364801090
N         3.80514028060740    0.98454545533186    4.70970493595260
H         4.48290090343511    1.14147254073574    5.46167457214432
C         2.11833912891865   -2.18876373285550    6.92927259750912
C         1.38899101449917   -1.65854979643094    8.00319764831582
H         1.09819677410850   -2.16982057705642    8.89625316708187
C         1.13921720609652   -0.35464521322872    7.67044885582594
H         0.64488070691532    0.41942838806379    8.22045967565292
C         1.55143012413043    1.08967248604928    5.76543324517491
C         0.32620515846799    1.74400356543669    5.89229128727571
H        -0.46947444035810    1.25397032632319    6.43242413850204
C         0.09658772185617    2.98992376894183    5.33481613714722
C         1.14152607130302    3.59680138387362    4.64425918903611
H         1.00773100895592    4.58138125924181    4.22477863612496
C         2.34469356780717    2.94603465591743    4.47891428399562
H         3.13686515055152    3.43158082245407    3.92808675446602
C         2.56695251200763    1.67514509848692    5.00507810023052
C        -1.22051005195909    3.67525897243382    5.48399169669867
H        -1.97757405587601    2.99885223070850    5.87049942480825
H        -1.55491568816781    4.07297523484734    4.52827707167303
H        -1.12514469794249    4.51413484876922    6.17280159662259
C         0.75452302249574   -0.66376646942729    2.90572774170811
C         0.19944078586858    0.29946825369440    2.04934169949985
H        -0.81847088310659    0.36042788162470    1.72695198562619
C         1.23641702849109    1.13083685670336    1.70920976061521
H         1.26006246701951    2.00323916492130    1.08872674150700
C         3.62491533670781    1.25744323644549    2.28382802648254
C         4.14936502149916    1.65892670165480    1.06583599855696
H         3.56539480859323    1.51905501367793    0.16897004075352
C         5.42529738919054    2.20549114371531    0.98380401972416
C         6.16605859517354    2.34035802324573    2.15285680536469
H         7.16162290372935    2.75267292851564    2.10801730623423
C         5.64715124123937    1.95916210962132    3.37728313874473
H         6.23736986461498    2.07714406087271    4.27460289373244
C         4.37604025661096    1.41410007873237    3.45913603327137
C         5.99683774491391    2.59687166791751   -0.33794608497271
H         5.22061225764257    2.94580286270159   -1.01394520288623
H         6.47657829414086    1.73240864250256   -0.79701357643809
H         6.74706289415609    3.37419721393622   -0.22340961063361
C         5.12491282306450   -1.85549647006562    5.40825858737877
C         4.86036988782903   -1.27048796436153    2.74759236038304
C         3.25828289053543   -3.20375321509584    3.76216860299521
C         2.59308958113780   -3.58976891619359    6.81486197455992
H         3.61994889994399   -3.63898471995121    6.45590904957226
H         1.96638947169837   -4.14720032506371    6.11943902657056
H         2.53202025934849   -4.07082371905945    7.78689560186916
C         0.05285343875248   -1.80291655629719    3.54839107170782
H        -0.65146159698111   -1.43918923296983    4.29683138122262
H         0.76202118979900   -2.47890949736254    4.02356088102644
H        -0.51381173289611   -2.35526952295704    2.80183734313563

