72
CSD_code = IYEZOC | q = 1 | S = 0 | Stoichiometry = C29H38IrN4(1+) | MND = 7
C         4.54124135286408    8.20571946222444   11.81513091047063
H         5.42392406787618    7.71397425029071   11.43471123312834
C         4.66481757674967    9.20327731950455   12.76625220611455
H         5.63816218579347    9.49211766600864   13.12767697665103
C         3.51230997971358    9.80609531732471   13.24397900875108
H         3.56114002213779   10.57869859217177   13.99539325060658
C         2.29391755642979    9.39321789127992   12.73124395801027
H         1.37321990198519    9.83408607340460   13.08040901513241
C         2.26703707325035    8.39137887621209   11.77042650805356
C         0.97962951496025    7.90441772461219   11.16156099333147
H         0.90899819266715    6.83396713937163   11.37167915112036
H         0.12362189605869    8.40650552328700   11.60185191415627
C         1.73206717032423    7.22805382985875    9.00182115518272
C         0.30966413854936    9.24407737808735    9.10735490498514
C         1.24047310728714    9.76467943567195    7.98059165324938
C         1.12763238294332    8.55243876893595    7.04462041844956
H         1.58103178776297    8.72597670008197    6.06858881583461
C        -0.91458998064496    8.69349267782630    8.34529419626557
H        -1.34267267888715    7.85012867992973    8.88583824955509
H        -1.68775883494370    9.45466365158832    8.25769255231215
C        -0.37844560523282    8.27277304402659    6.96468077675293
H        -0.83559802715519    8.85110468913536    6.16421916351128
H        -0.56031669220203    7.21844949964949    6.76087609156458
C        -0.07422527815246   10.31416312777272   10.11721343729789
H        -0.87951579472809    9.98079260698844   10.76669121963130
H        -0.43778118737343   11.18675856894058    9.58331544886788
H         0.77994681150704   10.61375189681492   10.71829920778542
C         0.70820911524271   11.01912374304953    7.28450611661623
H         0.88656922306501   11.90029953328228    7.89470192263470
H        -0.35288340948622   10.95558301886572    7.07056444213373
H         1.23527103290897   11.16044959404183    6.34337099972205
C         2.67220492023765   10.05098928192159    8.43437796822479
H         3.28403147419597   10.30836338329132    7.57202141054757
H         3.13535364385161    9.20531443598463    8.93732148169870
H         2.68279397990022   10.89700060809822    9.11766646369064
C         2.67308306944799    6.61056342424838    6.87053174029064
H         2.41967635457323    6.73755849439748    5.81830156282362
H         2.55314627275319    5.55902528244577    7.14534672004835
C         4.10551563177509    6.99407520775681    7.13161491866106
C         4.91222936724500    7.53857388224068    6.14300748240885
H         4.52059998359960    7.69519774110294    5.15014062384643
C         6.22523419010939    7.86243899522160    6.44377185102795
H         6.87494651383904    8.28438660499450    5.69310869240996
C         6.68422271969654    7.62137075535620    7.72894645372465
H         7.70108014174289    7.84236534874243    8.00953372972182
C         5.80730458738236    7.08118342556672    8.65282483788802
H         6.14362000159844    6.86696293844252    9.65655570594423
C         1.83642969855345    4.20181660152723    9.20407755505963
H         1.09582427959263    4.41300684172121    8.43187944260224
C         1.43210900715845    4.53108598076378   10.53078326653006
H         0.42838843132196    4.94654186670095   10.60517343476429
C         1.81426493916305    3.69261810791427   11.73748841534279
H         1.88184221576863    2.64702814408151   11.43573519440747
H         1.02099626128456    3.75615363437271   12.48387788641101
C         3.13116889321024    4.15554622178522   12.38406574871686
H         2.90774210100195    4.89632394223877   13.15505164157597
H         3.62124939186791    3.31329867331030   12.88256574604030
C         4.09744959869323    4.77984647384929   11.40584273218991
H         4.78571718208868    5.48082464314317   11.87181857439428
C         4.45139250111262    4.23667687258349   10.19436544808040
H         5.38075438993159    4.56694834739634    9.73969952385669
C         3.96218333440389    2.89427274690447    9.70474249605187
H         4.74854832728171    2.42695066165232    9.11027893877121
H         3.78347716014878    2.24941581786033   10.56523692528529
C         2.69051497141731    3.00624938020618    8.84876929416904
H         2.97378884344479    3.08812985663177    7.79690658506921
H         2.09064498355457    2.09576118691447    8.94523684875569
N         3.37648492229549    7.79874980981135   11.32645594017413
N         4.54337753905693    6.78345174298803    8.37514380663635
N         0.99056831736613    8.08186196356708    9.72067961508245
N         1.77787877202538    7.41349234153826    7.67777734724537
Ir        2.95216448503212    5.88016205048152    9.87172005194846

