38
CSD_code = IYEZES | q = 0 | S = 0 | Stoichiometry = C16H13BrN2O5Pt | MND = 4
Pt        6.94465541499245    4.60237859079129   -0.23655565145369
Br        8.09259930937432    2.50130329912214   -0.31737083205059
O         8.47292315469068    8.08995665676991   -1.70397400436949
O         8.83126471959768    3.89524649971370   -3.01948365014780
O        10.82510982105279    4.89732127460349   -3.35464750115863
O         3.79579419149589    4.34687768050690    2.31529508977954
O         3.20056582478373    2.28418550086329    3.09132940901068
N         8.04115060141866    5.95368586083767   -1.33178436270684
N         5.49279536852582    3.90403678422782    0.97933489137565
C         6.03983488822333    6.26677590499100    0.22263860891750
C         4.97601479276715    6.22774882458791    1.13022241819290
C         4.40090878741641    7.41942627903443    1.55975469349610
C         4.92473971996454    8.62234910220919    1.09595888927932
C         6.01301038361804    8.67822005347124    0.23674819231573
C         6.58013051266804    7.48088430054477   -0.19954808024493
C         7.69935944362775    7.21679499411056   -1.06304261730774
C         9.34329132189954    7.36005056993380   -2.42679005766190
C         9.08344211397159    6.03690259832961   -2.22121141132930
C         9.70438206841326    4.87864698227267   -2.91412571948547
C         9.25016798508723    2.68642670299264   -3.64420159925621
C         4.71821247683939    4.85607679940852    1.48586462095333
C         4.00783420676539    3.01025813688258    2.32425936701514
C         5.05596558153736    2.71567264313759    1.49979243598213
C         3.46284009443114    0.88107168582048    3.11040621002738
C         2.46679888619585    0.23824775232747    4.05847326949717
H         3.57138457517953    7.41395924590556    2.25050400452004
H         4.47858168371657    9.54629424873905    1.43196483992891
H         6.41612427919593    9.62817847154546   -0.08001927779394
H        10.06582983380636    7.86423750325945   -3.03403080366012
H         8.66114451179145    2.54994779903939   -4.55130351014315
H         9.05627619129405    1.87613592956775   -2.94152854891528
H        10.31213604077822    2.74102192111697   -3.88582656762476
H         5.52371925563090    1.78441246353747    1.25323891150498
H         4.49211499559923    0.70907204437014    3.44745693617672
H         3.35517763769008    0.47836043838941    2.09597688962521
H         2.57689101467962    0.65719325851340    5.05453491781081
H         2.64224895842241   -0.83227377541544    4.09996369168002
H         1.45277935285727    0.42141497393787    3.71492590821370

