86
CSD_code = IYIMOT | q = 0 | S = 0 | Stoichiometry = C31H50N2Si2Zr | MND = 14
Zr        7.23707027547882   11.84130544184993    3.66828672520353
Si        4.23980319663996   14.21914488515158    2.96511892859909
Si        3.01512728970923    9.58763076668298    2.95472017575376
N         6.86635693988194   10.05299172540604    2.61902422123338
N         4.66619706941178    9.07311716131543    3.22925649823011
C         5.17070273080399   12.64562306226714    3.33565918849304
C         5.01270884691401   11.40672664685173    2.97544050464503
C         5.56032811253143   10.13189119905055    2.99285328768747
C         5.28129797894619   15.60778224193427    3.80295479296125
H         6.09930217620080   15.18269131060709    4.38552368507795
H         4.67290194319569   16.20464573829585    4.47560094986235
H         5.71314787573711   16.29023737115521    3.07710873647590
C         3.98061475936607   14.65412795695914    1.11042267165472
H         4.86831388855494   14.44500311027281    0.52021359350257
H         3.73513334901227   15.70389528180825    0.97759309700667
H         3.16879399926472   14.07159784189096    0.68564866446487
C         2.50721837672859   14.24107896031141    3.78034882408156
H         1.84664327043169   13.50974930106245    3.32738927395490
H         2.04350771040720   15.21724359046659    3.67387715645719
H         2.56518681980024   14.01972420985327    4.84137938367626
C         2.89918106184630   10.46454505790339    1.26029496758366
H         2.81463564161029   11.53916347092710    1.37589739837982
H         2.03076138377445   10.12048967432466    0.70676522986230
H         3.77889171516540   10.27406440435400    0.65390355135087
C         2.28377421108179   10.62158694724374    4.39489745456633
H         2.09041159584503   10.00597941179479    5.26918417978234
H         1.33854939164732   11.06977804693654    4.10619930785190
H         2.95201538603611   11.42427473093651    4.69083182526515
C         1.83835986701996    8.08691730963668    2.78541266580961
H         2.10781411967704    7.43848695765727    1.95847990076593
H         0.84249334878323    8.46692516438504    2.58122986724308
H         1.76336762763691    7.47990980457850    3.68077980271175
C         7.42471285991007    8.86286676724853    1.99945436464945
H         6.68952918599899    8.04823803251556    2.00342012694228
C         7.78406468238262    9.12128580526369    0.52534412904735
H         6.87874081754358    9.41819930840510   -0.00992366382944
H         8.49821288301325    9.94273088137840    0.46188666358865
C         8.39113076026797    7.87203702643174   -0.10608267583725
H         7.66303068833236    7.05737987647369   -0.08270742628608
H         8.63773547599482    8.06852169059904   -1.15175709591153
C         9.64501195644945    7.45133488695448    0.65456056603890
H        10.07330387432969    6.55406497155521    0.20282821483340
H        10.39145908245989    8.24646007027995    0.59028648328099
C         9.31035563375931    7.18424640011835    2.11872688946435
H        10.21476603757618    6.90202219303667    2.66300985398968
H         8.61056636519661    6.34644763140888    2.17845856014532
C         8.67848738914546    8.41339695001637    2.76714699752795
H         8.41233773796117    8.18184732518846    3.80327652927934
H         9.39478759337137    9.24362257979839    2.78704979513328
C         5.10300686391579    7.92893335434615    4.01244974269388
H         6.18277541360536    8.03869969061567    4.16326034538710
C         4.85079428399533    6.59122673467971    3.30932903511618
H         3.77910116419900    6.43282621522052    3.21367860635153
H         5.27228682027316    6.60656968515027    2.30219219109125
C         5.46258178836000    5.45224172032294    4.12024051935260
H         5.29442688371828    4.50155539229091    3.60944101773855
H         6.54281143876112    5.59906535786877    4.20426054922279
C         4.84708297681196    5.40765879507550    5.51560599344336
H         3.77942867202430    5.19329350964493    5.43080757764898
H         5.30375421958407    4.60642434868036    6.10060554362356
C         5.03818183220206    6.74454169399974    6.22567191100915
H         6.10545003164748    6.92022286447107    6.38403130862153
H         4.55986553884440    6.71659238523683    7.20703413687007
C         4.45057513528730    7.88454533400748    5.39754613512439
H         4.60895096460552    8.83657901667203    5.90485619020119
H         3.37673312758188    7.73859996364093    5.28231728077816
C         7.69530168693667   13.76250871016986    2.11001123123458
H         6.95907559048426   14.47024563020239    1.75789112809390
C         8.09796471714578   12.59343423473005    1.43363315652782
H         7.68743869860648   12.24002560271516    0.49578132412635
C         9.21697033939966   12.06061126199311    2.11536497918660
H         9.86125862383003   11.26546307683799    1.76129712994889
C         9.50969632978986   12.91104861824027    3.20128576575714
H        10.38926953632308   12.84453919811528    3.83128019005225
C         8.56412414775967   13.95606763565945    3.20636188367320
H         8.59356030188261   14.83471446264336    3.83916270253518
C         6.26389081046775   11.24642825382398    5.92225709592428
H         5.22545245181542   10.98175813554984    6.07747199853723
C         7.33254323445260   10.35509535544727    5.70829273351892
H         7.26742519311767    9.27509590371550    5.72152378968423
C         8.53147591796967   11.10389406959611    5.68026069943512
H         9.53493106961630   10.68951275488051    5.66105163902947
C         8.19721559872588   12.45834358444587    5.90535509481245
H         8.90104603321821   13.26054471236971    6.09152500552797
C         6.79445047989084   12.55262380175351    6.02743959067427
H         6.23675709945252   13.43513775529041    6.31804995580478

