80
CSD_code = IYIMUZ | q = 0 | S = 0 | Stoichiometry = C33H42N2Si2Zr | MND = 14
C         2.91155299184683   13.57834311268075   10.70854469541451
H         2.73495423840586   13.59690762756583   11.77753040637966
C         2.53243859869395   14.57684914284767    9.79037910876933
H         2.04084147466217   15.50687681824955   10.04140522133763
C         3.07144226098880   14.23871433817967    8.52547265398985
H         3.07345254236235   14.87180748014950    7.64696505447167
C         3.80137613548130   13.03982610085890    8.67474010936218
H         4.45308088801242   12.59785081738546    7.93002869027731
C         3.68778538370589   12.61971038525882   10.01720133454116
H         4.24988362804972   11.81686242059896   10.47712525030054
C        -0.16136885672293   11.14195652487168    7.59768366021683
H        -1.21952116137990   11.01076097069506    7.78306142035289
C         0.41428699173439   12.13326677278592    6.76831500803953
H        -0.13331360262711   12.87055103147645    6.19206763495936
C         1.79628594206554   11.85761694559423    6.66165946523357
H         2.48738033197741   12.35283999556775    5.98878766000281
C         2.07814992668814   10.71513371164101    7.44646492914876
H         3.02344593345114   10.18215831304090    7.47862658506315
C         0.86477298163642   10.27028588723344    8.02113117478288
H         0.72270887358335    9.35289488276406    8.58128041208763
C        -0.32516278688209   14.04712267674892    9.09593590770897
C        -0.64661712951132   13.19104763480802   10.00765225906638
C        -0.50445320890920   11.95922953146582   10.58734734083285
C         1.30181968805579   10.96249386501712   11.90825448639324
C         0.75184757027339   11.17665131055091   13.18045119787265
H        -0.12526783147925   11.80219279104988   13.26874301237722
C         1.32467242083872   10.59872071083627   14.29479424014010
H         0.88700513773886   10.78021229327909   15.26702048994323
C         2.45149576516867    9.79177239127637   14.19439008835890
C         2.98910995854278    9.56503300569187   12.92961933903853
H         3.85526052644808    8.92435468166262   12.83237814143548
C         2.43060739579884   10.13020124280625   11.80431966792471
H         2.82377568974389    9.91902484671378   10.81174120828488
C         3.08474379899626    9.18368310257740   15.41057456641164
H         2.40895376696192    9.22500400818305   16.26151399492122
H         3.99622080501178    9.72259367095504   15.67336838483389
H         3.35409847076566    8.14467414235066   15.22767041277015
C        -1.69087116348286    9.83312991800086   10.44058838702380
C        -0.82937911984453    8.88006953033541   10.97348685960909
H        -0.12694823644362    9.15482415909548   11.74240915959407
C        -0.88343333654510    7.56548405941919   10.54462561798925
H        -0.19973972665117    6.84621252509805   10.97368468280031
C        -1.80195480642906    7.15388578003678    9.59046678038068
C        -2.67899816927138    8.10334951356824    9.07820764193515
H        -3.40918419814457    7.80700470027412    8.33803532335995
C        -2.62344192257416    9.41879396832370    9.49048548054882
H        -3.30289398917182   10.14413657667937    9.07025624465812
C        -1.85476789317667    5.73380255394753    9.11332407067799
H        -2.87390070789664    5.35276641218744    9.15494951726341
H        -1.21779705036314    5.09576019633820    9.72073620799895
H        -1.51843294275154    5.67119663079923    8.07817856368699
C        -4.30122526245380   10.87733761732838   12.03669966690382
H        -4.58326136578049   10.05652291756102   11.38648067137204
H        -5.21018877959108   11.38737787234896   12.33620948733897
H        -3.85540664092740   10.44637087563441   12.92744488389476
C        -2.67135929155898   13.49164225688389   12.40272002984055
H        -2.23744017476422   13.10228635955153   13.31851491132070
H        -3.56676418880791   14.03970929498980   12.67711287835671
H        -1.96804878575653   14.19807111914093   11.97363312530900
C        -3.94575829976658   12.84620411861630    9.62762606980909
H        -3.20578555522755   13.12621189150558    8.88229689685877
H        -4.50745977081083   13.73926345963798    9.88287578068820
H        -4.64467931411632   12.15469387033623    9.16498515152327
C        -2.48312408550348   15.95707187001113    8.03701677024191
H        -2.62442745081080   15.24917062318277    7.22625261320344
H        -2.66989005924992   16.95063547125895    7.64119557624735
H        -3.23958738092655   15.75433103431311    8.78720294817633
C         0.51317864579392   16.40069173400665    7.41426240773693
H         1.42305072409610   16.81803011099982    7.83480240783524
H         0.07410183133572   17.16612657436037    6.78193457385230
H         0.79200485953010   15.56510558501832    6.77299751035579
C        -0.64673484868672   17.07132699804965   10.24595558921766
H        -1.42649447863607   16.85420534452930   10.96999946989825
H        -0.78526851015302   18.09545994483931    9.91175975840324
H         0.30317761351471   17.02511444091338   10.77100196075238
N        -1.66076387794184   11.18199358675540   10.84257093623848
N         0.79811075967005   11.52679610326617   10.76509591851684
Si       -3.11135234208418   12.09508367435647   11.18125935838071
Si       -0.72097129125290   15.83938843714307    8.77499737553925
Zr        1.36716504321198   12.49103510390825    9.03361552158558

