85
CSD_code = IYINEK | q = 1 | S = 0 | Stoichiometry = C40H40AuP2Si2(1+) | MND = 4
Au        1.51304260046134    8.24299004922930    4.26995805616864
C         4.99118023342439    8.23875998694263    7.70921263799577
H         4.34174711768666    8.39397096011967    8.55894228242212
P         2.89348905951117   10.28960754550361    4.05840691921273
P         2.73081986975334    7.35237932487317    6.24007839169080
Si        0.33468545008157    6.13956735332100    4.45044395933677
Si        0.27608401414513    9.17261084685101    2.41481634942595
C         0.02920716609915   11.94372688910011    1.70673077857842
H        -0.82600063964141   11.60695733736542    1.14021758719733
C         1.86944967747670   11.48591546685859    3.15587430493778
C         0.76863562145460   11.01727929730624    2.43488985936195
C         0.36243164418916   13.28618358593568    1.69648150499158
H        -0.23030725321378   13.98423497349040    1.12515356502066
C         2.20735859405225   12.83652156376689    3.15303281942939
H         3.05122040024258   13.18590306841775    3.73226325092662
C         1.65493638701429    5.01231965352196    5.24428962551418
C         3.63668331690061    4.74768527340252    6.62751082908168
H         4.42230884484789    5.19449591131248    7.22231898023412
C         1.61711554080731    3.62997006217097    5.10006523123156
H         0.83582718868779    3.18204851122190    4.50498427122163
C         2.68069316994522    5.55746185104439    6.02205546862015
C         3.57713290442785    3.37578402839704    6.46434454699140
H         4.31752697231455    2.74476529025230    6.93176018645890
C        -1.09974178468489    6.32275309555679    5.69947351876941
H        -1.89941415128894    6.93241787855176    5.29191561922122
H        -0.76291692883829    6.78678200582098    6.62281255972356
H        -1.51957984084969    5.35267246738263    5.95108177623175
C        -0.26981633746142    5.30393810149068    2.84864603447983
H        -0.84149794334777    4.41193311323034    3.08069476325313
H         0.55302669165471    5.01403460330203    2.20400398415336
H        -0.91810704575407    5.96526492880382    2.28681388122166
C         0.82807246566502    8.46641304657087    0.72687851754522
H         0.61881466816800    7.40466259829071    0.65405488155275
H         1.89146406211230    8.61256785405544    0.55969056647892
H         0.29872646856965    8.96243194249454   -0.08163825099487
C        -1.61869048088557    9.07443521154184    2.60929202865898
H        -2.11478968090452    9.52239342882891    1.75491681653083
H        -1.96155839935452    9.59154572329263    3.49956027251849
H        -1.95070398557908    8.04490267192172    2.67416884418260
C         1.92400825923474    7.64096009271101    7.83398057925394
C         1.12453008544701    9.27444572627399    9.40501863823877
H         1.01144812074231   10.30414531317701    9.70896358679758
C         1.76568925549100    8.97190808572140    8.21967061777946
H         2.15639849131083    9.75864471936578    7.58521369178369
C         1.40727031013613    6.61909190014243    8.62261691346893
H         1.51274885553906    5.58870154937571    8.31372589283743
C         0.62254205135951    8.25389237672512   10.19880200347564
H         0.11893340659511    8.48982861216281   11.12357019210476
C         0.76100584957478    6.93258605719397    9.80567265551104
H         0.36396874937769    6.14124060921736   10.42308625905892
C         4.48211012614755    7.72749969397367    6.52101284527646
C         6.34025068000449    8.53417840904734    7.79911496292278
H         6.74016001577074    8.91745777868993    8.72579295760912
C         5.32323315018920    7.53571837410495    5.42497955499879
H         4.91351816025303    7.13729044281350    4.50499225699114
C         4.39280453181072    8.80612051706896    2.27828526623478
H         3.67767423138947    8.02264366402865    2.50488467057327
C         4.27538791116576   10.04043193378879    2.90887286140015
C         5.17953730288589   11.05783998720808    2.61563278755193
H         5.08701331575096   12.02074273922009    3.09739802741120
C         3.14416212647350   12.56325714414652    7.39659669048687
H         2.45967671314037   13.13615479737930    8.00407313303244
C         2.69076276044181   11.94040205639085    6.24981181382498
H         1.65191249244024   12.01974624718382    5.95309299090193
C         3.57874754857312   11.21461322928336    5.45377914295499
C         4.90853842328044   11.07968370164824    5.84235862655467
H         5.59091829625065   10.49305334223571    5.24322962433415
C         7.17595689962935    8.33832599436078    6.71175919053190
H         8.22637083681913    8.57398696260981    6.78984472818143
C         4.47593591922093   12.44947374082233    7.76706014510167
H         4.82865634892975   12.93803361407017    8.66224744177227
C         5.35248758568707   11.70786413425269    6.99179864719324
H         6.38784812854171   11.61549286941515    7.28265774227681
C         6.66669694106926    7.83829860633776    5.52215053983669
H         7.31629581449243    7.68758241065169    4.67275651294199
C         6.19824940048639   10.82872757615273    1.70997701313194
H         6.90103993802572   11.61637166566936    1.48434807032459
C         5.41406383593690    8.58352107475850    1.37264220998400
H         5.50484057220860    7.62318250002037    0.88738169621619
C         6.31834390678830    9.59418411913544    1.09037143173782
H         7.11644071698160    9.42138347821109    0.38488512941552
C         1.45192178044396   13.73580891929632    2.42499316711329
H         1.71217258142827   14.78328199752235    2.42639857528498
C         2.56484944863368    2.81820143703253    5.69965750677288
H         2.51612246641996    1.74791229846984    5.56814378950383

