29
CSD_code = IYIPAH | q = 0 | S = 0 | Stoichiometry = C6H18I2N2Pt | MND = 4
Pt        8.22556792674607    1.92286593513725   -0.00154929097276
I         9.83588248827654   -0.13149371969540    0.08755340121362
I         6.61508347482326    3.97722951986427   -0.09100455958029
N         7.36578336956498    1.32625771039223    1.78018407118649
H         8.05435590361169    0.83235706343891    2.35835160013465
H         7.04196330869218    2.14307305307690    2.30960489301759
N         9.08510598941163    2.51943136748923   -1.78333910484821
H         9.42251443431866    1.70348853846482   -2.30558998430735
H         8.39234400665277    2.99974964135058   -2.36792411427673
C         6.22303842849171    0.43448141559422    1.53951367134448
H         5.48729781937267    0.96942924225241    0.92982794177780
H         6.57448091300571   -0.43595216782618    0.97536125627063
C         5.56772918384652   -0.03000390281738    2.83992435541549
H         5.22595052743192    0.84069714650239    3.40592770292897
H         6.30411205342750   -0.56140670139286    3.44869994124894
C         4.38502262558959   -0.94783226446887    2.55933766523658
H         3.92579190860018   -1.26983929127008    3.49000358425167
H         4.70853214418294   -1.83017153338659    2.01237699783894
H         3.63412076874031   -0.43137154291205    1.96622535934113
C        10.21443247805345    3.42857002173514   -1.54420533638596
H        10.95418766536637    2.90860023370752   -0.92634781096647
H         9.84843760254642    4.29874684229288   -0.98912314373205
C        10.86949081601491    3.89179458295485   -2.84518297579204
H        11.22895541584296    3.02193361424328   -3.40134740116337
H        10.12763191392897    4.40517210355030   -3.46268724956494
C        12.03480868324986    4.83219501015287   -2.56670422790701
H        12.49034006738092    5.15758160368264   -3.49800917775990
H        12.79352392202786    4.33261685564535   -1.96913069889427
H        11.69401416080217    5.71139962224149   -2.02524736505497

