17
CSD_code = IYIPOV | q = 0 | S = 0 | Stoichiometry = C2H10I2N2Pt | MND = 4
Pt        2.88092429768091    2.06510107425291    5.16463682220667
I         4.03245934954073    1.17975527712301    7.28893607987900
I         5.05717531601182    2.44037392624565    3.84463161116997
N         1.79859711320329    2.76408186539314    3.41253659266740
H         0.94698494036355    3.28061351696209    3.63328924262416
H         2.44731832092482    3.42041854101312    2.97144921807651
N         0.97766501592896    1.82941039169089    6.19076013740861
H         0.20976755606810    1.54496914197938    5.58235217760281
H         1.15004283159966    1.06060856376063    6.84309505325244
C         1.49987244641921    1.69690179753050    2.45330076858457
H         1.03740506045611    2.08660911561134    1.54149285210856
H         0.82400339027659    0.96591304560336    2.89857005668125
H         2.42689813377390    1.19175005462643    2.18176787754580
C         0.59077249287835    3.01204727260170    6.96492403777691
H        -0.31201233201451    2.83386729853141    7.55673727221718
H         0.40687857072728    3.85665477003151    6.29999074670195
H         1.40224749616128    3.27512434704281    7.64372945349626

