93
CSD_code = IYIQUC | q = 1 | S = 0 | Stoichiometry = C45H38AgN4O2P2S(1+) | MND = 4
Ag       -1.27546337131654    2.55503666496787    3.47328204581467
S        -0.38892701067527    0.10209097301503    4.16945163030856
O         0.88741939804706    3.00792208610981    7.99097888518198
O        -2.74025669953834    4.18333167797581    4.99506403801150
N         0.22689723811630    1.62566244557772    6.29441907292542
N        -0.79680117075136    2.43926909568629    5.88922355296345
N         2.37364740534619    0.01477949614350    6.86953058893920
N         1.60165135985560   -0.17711267715789    5.80969350428642
H         1.82408750235076   -0.98118957367735    5.23195710285319
C         0.51878487638153    0.56473000265610    5.46733116616561
C         1.06869935807368    1.98867180610395    7.37071970664185
C         2.15102742025969    1.02406933215016    7.63139115403729
C         2.98844125860648    1.24684753189615    8.83506326674804
H         3.84959889068014    0.58738624987197    8.81504650492872
H         2.40283258905932    1.04709515561480    9.73251740907474
H         3.29803489795857    2.28902046131175    8.87821738635742
C        -1.50860669918588    3.07080906682619    6.75097522918503
H        -1.40217056929658    2.96141840871518    7.82546967766572
C        -2.51922396292448    3.97251532524651    6.31722692128852
C        -3.39666574526799    4.74028963386299    7.05775140541700
H        -3.45738522904074    4.78590835622749    8.12580386333574
C        -4.18152447152193    5.44626919352180    6.13007767234206
H        -4.96738822374276    6.13976826795962    6.34606574613140
C        -3.73629314402117    5.06859616813252    4.89421130093571
H        -4.04958410217934    5.35136367593903    3.90682369545135
P        -3.22011688744976    2.52171426039549    1.87601569412339
C        -4.70137301779693    1.63699674274151    2.45183606775547
C        -4.80623874380732    1.33812532768832    3.80586814157932
H        -4.00272532048576    1.62554006851378    4.47716393556911
C        -5.91892550220029    0.67179459402031    4.28637702516537
H        -5.99890373532360    0.43970345984520    5.33794073577188
C        -6.92667258190816    0.29531391738643    3.41347481692924
H        -7.79295795639585   -0.22976438084438    3.78570422192105
C        -6.82090905929617    0.58272660711571    2.06085677281737
H        -7.60483741406665    0.28166900780094    1.38251366662546
C        -5.71243106266508    1.25142654587032    1.57585573804552
H        -5.62591282692120    1.47322002006872    0.52154103359676
C        -2.87318697344495    1.68013461529020    0.29875104589464
C        -2.05307820199898    0.55583143552914    0.36188889009369
H        -1.64911507043075    0.24501851209948    1.32033694332509
C        -1.75639065664202   -0.15247941491285   -0.78683772464135
H        -1.12105807432542   -1.02362658659805   -0.73440691227675
C        -2.27323760923709    0.26090130597140   -2.00504027220373
H        -2.04094039864347   -0.28963923827351   -2.90394541460809
C        -3.08513893160687    1.38152620747660   -2.07176569347974
H        -3.48573277958476    1.70303829167633   -3.02145612470854
C        -3.38836411300693    2.09410291306757   -0.92474263991532
H        -4.01521273693415    2.97299408274120   -0.98301739494835
C        -3.86709032113404    4.13545690568330    1.33643598021016
C        -5.14978042273010    4.58044405913084    1.63819599449082
H        -5.83543965182740    3.93616038294585    2.17102192274955
C        -5.54804130805994    5.84915213612962    1.24994896799044
H        -6.54777511633626    6.18757881776944    1.47761147565205
C        -4.67091731916558    6.68010554478825    0.57242637073680
H        -4.98793988080366    7.66640006241973    0.27006316326214
C        -3.38614294424752    6.24478300642672    0.28165309702740
H        -2.69940728000023    6.89175094741402   -0.24334364169242
C        -2.98272463014367    4.98068863676202    0.66608336774137
H        -1.97993065638653    4.63465710104232    0.44476251997660
P         0.90535321643239    3.77317765159561    2.98391714157891
C         2.26066098840371    3.49812449509421    4.15904457749378
C         2.45232717422177    4.35026173519183    5.24285548013887
H         1.83587497743533    5.23267690467595    5.34832467587991
C         3.43605452451402    4.07180226367143    6.17487750377606
H         3.59005668438922    4.74424015182684    7.00513276288216
C         4.21930370081440    2.93624624319977    6.04243468476408
H         4.99704079749936    2.72684371009874    6.76061711146725
C         4.00510209637753    2.06359363278876    4.98613617461962
H         4.60677713323156    1.17171717526507    4.89278517545699
C         3.02316802654082    2.33580152187247    4.05213620634955
H         2.84895162076619    1.65857939234794    3.22528054508105
C         0.78905841839425    5.58720914389690    2.86347205459457
C         1.90722771371151    6.40913338260677    2.75984018984925
H         2.89966683708448    5.98379518333968    2.79438443444176
C         1.74329468629876    7.77492229334224    2.62338034410622
H         2.61064065329895    8.41302234608154    2.54559767119978
C         0.47169326692333    8.32694527749665    2.58321489516907
H         0.35210933095270    9.39386985876333    2.47262840304360
C        -0.64350808576610    7.51171395166929    2.68531939037710
H        -1.63530900419871    7.93851137508436    2.65498950225847
C        -0.48406707262939    6.14543392389389    2.82732855433100
H        -1.34782739476807    5.49239075776395    2.91039296095394
C         1.65274439908140    3.35721539051989    1.37415625985987
C         2.99386892779217    3.57031099977878    1.07041760109129
H         3.66911788309264    3.96025400780824    1.81881361424717
C         3.46763825789222    3.26003277657198   -0.19115030153343
H         4.50910297960132    3.42242842956640   -0.42518281947874
C         2.61474125760559    2.74110399769760   -1.15316963207916
H         2.99420682620805    2.50017885026658   -2.13432152573849
C         1.27973434499529    2.52362006513307   -0.85329706817985
H         0.61174133730563    2.11080042331197   -1.59482264923929
C         0.80251426333818    2.83052463598158    0.40709985290264
H        -0.23964337972601    2.65252332336625    0.65940195767019

