51
CSD_code = IYIQIR | q = 0 | S = 0 | Stoichiometry = C12H29N5NiO4 | MND = 6
Ni        3.02895189863395    9.49604145602970   11.09753326670131
N         4.35821231321389    9.86014411022192   10.26798797018951
O         3.97045224482427   10.55182944075145    9.36106546255758
O         5.47431829751666    9.51827047667303   10.56147105601022
C         4.14130494739987    6.67516968671441   11.93605920656272
H         5.19440132257826    6.88986001986336   11.73287767053865
H         4.04710020702136    5.59847151180504   12.12101106114732
C         3.73879041877082    7.44667285054314   13.19519961563451
H         2.67118663690139    7.33215576447894   13.39303941839758
H         4.29710209288784    7.05170503737665   14.05843975595553
C         3.53496379554053    9.74473314099113   14.03388016885327
H         3.98018121894335    9.49323368183586   15.00976433366492
H         2.45066749909574    9.63628860309814   14.10517042686377
C         3.91205005918392   11.18268688742435   13.67038262334801
H         3.55447327331166   11.85880996071235   14.45865349549623
H         5.00409313447574   11.24333702704572   13.63878878836412
C         4.10601088561109    6.81476159773101    9.53046371474240
H         4.31412889219041    5.73892203299999    9.44280529249129
H         5.07040642486641    7.32388326327031    9.60642070357914
C         3.37721143021103    7.31149150637923    8.28639558897299
H         2.90919049773328    8.27660401013075    8.48334858008890
H         2.60248341935823    6.61848806289905    7.96951974779790
H         4.08310316283289    7.43021747350713    7.46842734601484
C         2.03467671692693    6.44075997018811   10.74894473393088
H         1.43624416332241    6.92426157288031    9.97622856515685
H         1.55459082570879    6.64361515027268   11.70759345280448
C         2.01180921315071    4.93131699648925   10.49730211249460
H         2.62107452947047    4.38261979923817   11.21193320017705
H         2.34592331365802    4.68435678658088    9.49334730607962
H         0.98616519822905    4.58682078295427   10.60139865186272
C         2.03290747767981   12.13125910796304   12.49480857782815
H         2.04260688765270   13.00627377475042   13.16196908532500
H         1.41884734642897   11.35946163770059   12.96363303073251
C         1.41152977578898   12.50180201755454   11.15399319196942
H         1.61068922468265   11.71825174817491   10.42004727793801
H         1.80060410281535   13.44122511957213   10.76934114914600
H         0.33432305507366   12.59641059867815   11.26493371500057
C         4.30401602306479   12.52466791534303   11.69656180123923
H         3.93898625555189   12.69934183295670   10.68329063389112
H         5.28177667854753   12.03986032011029   11.61586668227521
C         4.49003815843237   13.87226152594725   12.39713921466027
H         4.82720976724456   13.74578718037029   13.42339783717912
H         3.57111176147830   14.45183928371605   12.39967463570015
H         5.24374101694267   14.44280502692982   11.86036313966166
N         0.48394190551667    9.22868194147720   10.86037528487805
N         3.35669901812031    7.09818136148090   10.76695064318575
N         4.00745952871135    8.86095725965286   12.97656475345796
N         3.38984225993744   11.57376743350297   12.35299488622094
O         1.14390158641534    9.42435972664103    9.81160625249181
O         1.20957467967524    9.19659249774449   11.89941261030776
H         5.01722545667110    8.98048402864492   12.87792228042960

