123
CSD_code = IYIRUD | q = 0 | S = 0 | Stoichiometry = C46H62F10O2P2Ru | MND = 5
Ru        0.28709545298455   12.33362396920871    3.95590722487959
P         0.28891248724509   10.16558798505014    4.77390850439986
P         1.76831696080764   12.11529537147931    2.18262528678763
F        -3.08552551775446   13.18662598013885    4.72436112354008
F        -4.98348452344674   14.57599778667423    6.04332999469882
F        -4.45709997500916   15.67983740391317    8.50103437537185
F        -1.96424812783711   15.35648839880579    9.59931557334314
F        -0.04796871312210   13.96241427700017    8.27503649014072
F        -0.97795275174000   14.94819637927777    3.84749351842297
F        -1.93272925538448   17.14938938741721    5.26103760509482
F        -0.34526964333682   18.29088786032562    7.18229739074105
F         2.12296088660494   17.24351790337423    7.69166981773664
F         3.01947303449411   15.07216414530312    6.31388093347403
O        -0.57351455955033   12.83109838757439    5.88709566659163
O         1.41725893378133   13.97839318185273    4.33947251838479
C        -1.20413294349630   11.80767996374127    2.95745727837046
C        -2.28624331355221   11.48114449749988    2.32796596700971
H        -2.66670438734248   10.47058705030481    2.44929665424980
C        -3.15846121202613   12.31915337521952    1.40408680608729
C        -2.95466469282223   11.81453887067901   -0.02903319163144
H        -1.91973177076524   11.94046685581998   -0.33895696674407
H        -3.59094512957624   12.37195575913526   -0.71313152515134
H        -3.20887372843809   10.75926608239291   -0.10856003212276
C        -4.61903944769219   12.12265176847708    1.81528731605483
H        -4.92671818536613   11.08595011768059    1.69117413266861
H        -5.26347840287573   12.74850567611609    1.20227315486394
H        -4.75403181363349   12.40519645689196    2.85533978563327
C        -2.79022461438559   13.79530717901952    1.51383166699146
H        -1.71410008927701   13.92677530740490    1.44177108477053
H        -3.10503696194873   14.18483593072179    2.47541362366962
H        -3.27917845465736   14.36960657831231    0.72976313187274
C        -2.38085706055239   10.05584030496946    5.57505499189398
H        -2.62756162464381    9.19601718266063    4.94687699780891
H        -2.43624916341887   10.95540642537750    4.96318182194769
C        -3.38631965659297   10.13193410409726    6.72065248101090
H        -3.16930412827501   11.00718978125340    7.33728070526249
H        -4.39404740097325   10.24986469846304    6.31899438190835
C        -3.30473361551111    8.87154556306856    7.57555618062811
H        -4.00022610716181    8.94091970062622    8.41339896700651
H        -3.59088325633366    8.00527108087826    6.97412941335320
C        -1.88478451868881    8.68051585254541    8.09763460815253
H        -1.82365875914271    7.76187304117443    8.68531869760490
H        -1.62753244774063    9.51462702334227    8.75417460606033
C        -0.87753697575502    8.61596426209709    6.94742015215274
H        -1.10853882414106    7.75101730279191    6.32205303479496
H         0.11810578220875    8.48143763149763    7.36818119855209
C        -0.96346288639770    9.90540528531555    6.13087581097970
H        -0.77985834847003   10.74989522018379    6.80576729889291
C         2.06212570758803   10.94122320202381    6.74719496492439
H         1.69008988894806   11.93547085367170    6.47061200550071
H         1.43070086646636   10.56593169133829    7.55534168310538
C         3.49784331256340   11.04226322987773    7.25333662891237
H         3.52816368175836   11.68497634510002    8.13426885995691
H         4.13114947671692   11.49802089322758    6.49000338600058
C         4.03787589825594    9.65671144259024    7.59558744204684
H         5.07417369349941    9.73390880864279    7.92898241290785
H         3.45551928615615    9.22998690325756    8.41541677330474
C         3.95249122926319    8.73456640758250    6.38234509597465
H         4.33745345837378    7.74508203226126    6.63794485799955
H         4.57390399665875    9.13624086145372    5.57791396510572
C         2.50619496669654    8.60979672717314    5.90026107335108
H         1.91563294198555    8.15949178404538    6.69704044363127
H         2.46472708174794    7.94331528689014    5.03724816973665
C         1.97856378534994    9.99937079916498    5.54195788513974
H         2.63799776878632   10.40163960564790    4.75964384382047
C         0.02866142774710    8.64670785410675    3.74795424195844
H         0.06624172538765    7.80201215589672    4.44145052755542
H        -0.99658447686576    8.73966498481954    3.37926611868899
C         0.94687964257610    8.35544746134135    2.56236273617735
H         1.95042382603751    8.10699256295148    2.91120261413181
H         0.55248020714343    7.45947649127954    2.07515629286841
C         1.02878741549519    9.48725209594218    1.53335529567172
H         0.11506904608881   10.08647865832604    1.60075045076369
H         1.06734774097660    9.04896820736543    0.53501640160853
C         2.25027294294714   10.39475358243366    1.72663291346044
H         2.86254056066595   10.43196156279244    0.82400789910799
H         2.88043650803388   10.01417081319765    2.53303116365256
C         4.05976355965995   12.48844314997601    3.73529541926706
H         3.34261647655197   12.58411606988709    4.55219329679971
H         4.36009723064780   11.44051060902638    3.63823300357597
C         5.29488248344694   13.32561258593738    4.05476362311492
H         5.74969456928770   12.97357750438295    4.98301119114309
H         4.99691733493740   14.36401599506314    4.20908230366850
C         6.30313100507486   13.24192653346399    2.91427131348483
H         7.16937192054113   13.86801757885251    3.13441066848180
H         6.65366662065518   12.21158333799554    2.81123175854525
C         5.65741127950957   13.69020207763436    1.60770857992357
H         6.37396029193509   13.60448821904477    0.78774513469201
H         5.36901435787319   14.74068120195066    1.69039454314992
C         4.41939150248610   12.84942788508680    1.29189941157432
H         4.72031023967869   11.80758418997286    1.16186455352385
H         3.98923812806924   13.20118667553240    0.35467513426976
C         3.41068123385423   12.96583477719882    2.43452386853743
H         3.14969596116371   14.02296445335086    2.57010723859374
C         1.53907959345482   12.26445549734252   -0.72801716469207
H         2.60167592662836   12.46651620848481   -0.86186043133058
H         1.39000859626388   11.18473530201907   -0.77230297756891
C         0.77189411910706   12.91831562356790   -1.87840930998809
H         1.15690643713868   12.54259893285679   -2.82872826259080
H        -0.28314794834665   12.64417501909737   -1.81550179262107
C         0.89809255255515   14.43716029130348   -1.82764540036719
H         0.34727764994889   14.88189568320271   -2.65806761346937
H         1.94808421415390   14.72015415004340   -1.93437496493824
C         0.35734235822313   14.96388301501835   -0.50249328877307
H        -0.70325898088514   14.72138178505405   -0.42481336561817
H         0.45559338217582   16.05019969881227   -0.46248706418570
C         1.12055467217872   14.33703913156145    0.66081354249475
H         0.70920581363387   14.68165264100573    1.61634587666648
H         2.16288643760290   14.65693153856102    0.60098211002826
C         1.03708177239064   12.80899915125604    0.60976827984726
H        -0.02274425689530   12.53093707812138    0.70306104867876
C        -1.27681130447572   14.10691778259902    7.72310638721137
C        -2.24287074183971   14.82494201038614    8.40029670200795
C        -3.50660449319206   14.99488787763357    7.84339573140271
C        -3.76990976478611   14.43451607232739    6.59867910576336
C        -2.79542495199696   13.71392663128867    5.93510896065201
C        -1.49637513988605   13.50786059426683    6.45580721042649
C         1.80240759031596   15.58726103493367    6.04741910344781
C         1.34667771682819   16.68653014529452    6.75521261225435
C         0.08985018798461   17.22571873219860    6.49384378477136
C        -0.71274964663453   16.65339316284017    5.50977675156994
C        -0.23732422233867   15.56999619653160    4.80200700853237
C         1.02048407896791   14.97999851638594    5.04418397274635

