89
CSD_code = IYITEQ | q = 0 | S = 0 | Stoichiometry = C38H38Cl2N2O8Pd | MND = 4
Pd        9.87943062879035    5.08374031330414   10.92657668619877
Cl        8.73761784506765    6.58474785822055    9.63994217675024
Cl       11.03157709364805    3.58949589525677   12.21313351905275
O        -2.82920344040777   -1.20164297138093   14.51385845083364
O        -1.38228570892489   -0.66716099823392   11.83881746460838
O         1.29964164655619   -1.33375411051467    9.46994109201050
O         3.29686132813924    0.08868167964296   11.26032030071273
O         2.77460203416105    1.57879343837502   13.30308435706677
O         1.18377507077802    0.31349050627861   15.28366032649249
O         0.46967707425901   -1.66288186104242   17.41478195391793
O        -2.12147045256649   -2.52316890109737   16.58763687616717
N        10.31642097786587    4.06396125790844    9.34695561134713
N         9.60374705655285    6.20491916781121   12.47266660210370
C        -3.42647975574050   -2.13796654366277   16.57155124727645
C        -4.35207063318982   -2.39334164878515   17.56690904373685
C        -5.66676684728912   -1.96567445884232   17.42640968010537
C        -6.05672152707740   -1.28701350287222   16.29262647797087
C        -5.13642221140856   -1.01610341710523   15.28744165060388
C        -3.82150277701566   -1.42814480075192   15.41528521796890
C        -3.02006569339894   -0.21651029519394   13.52653956907126
C        -1.64870494128028    0.14481519902748   12.95763976364415
C        -0.10129534322974   -0.44940131849570   11.29378309622839
C         0.07232915317654   -1.45155697174948   10.14762205896001
C         2.43241161948078   -1.84094554890889   10.14359254019914
C         3.54658351287714   -0.79429773843398   10.18697367857820
C         4.19155998864668    1.07466900180118   11.50227759060417
C         5.32400371581760    1.32346632378182   10.75084512309762
C         6.20558340504419    2.35166095267503   11.09981425781769
C         7.35667691969994    2.60091744425142   10.33781284454805
C         8.36227423172863    2.84856320964462    9.70642091549909
C         9.51264011782369    3.07568648630335    8.92360638145683
C         9.81091991845559    2.32898703249845    7.78030912857148
C        10.96197300051250    2.62198953038682    7.07764484273522
C        11.78575541939753    3.64858653159645    7.52923062278406
C        11.42486820378105    4.34428074987736    8.66808712877203
C        10.49575792220653    7.14737873430335   12.76304337433547
C        10.35262726048029    7.98542193059806   13.85307411122959
C         9.23857663257003    7.83810721805723   14.67385626065600
C         8.31122021120992    6.86092515612851   14.37470748066394
C         8.52367097149972    6.05144186263281   13.25509069384484
C         7.63339245235213    5.02805604692937   12.87094739877695
C         6.83422815983116    4.16029692338630   12.58858067671839
C         5.94001846770426    3.14061834578904   12.23065847814077
C         4.78905242661897    2.89563518929862   12.98711942695857
C         3.91452620613816    1.88516734724948   12.63866858085530
C         2.48962916019956    2.25694506071465   14.50533216731560
C         1.17232611401672    1.69461905370818   15.05857083814485
C         1.96377926324338   -0.11047445932480   16.37910734007203
C         1.65237389137388   -1.57638659118969   16.66077424496310
C        -0.02772176524761   -2.97290125989451   17.54927892999278
C        -1.53101796626105   -2.90631167459018   17.80439541974206
H        -4.05872262366560   -2.92526518722737   18.45866581127670
H        -6.37825081474661   -2.17153840249916   18.21146922257132
H        -7.07837884755348   -0.95822387137904   16.17802341535804
H        -5.45585414284111   -0.48292274434820   14.40566628732417
H        -3.65316962498788   -0.59220276610852   12.71223397154704
H        -3.48516118861071    0.67517636646767   13.96782046585149
H        -0.89228594031020   -0.01838527726044   13.73813350840110
H        -1.63558008685199    1.20506267954682   12.65619656176240
H        -0.01173679610629    0.57728185949915   10.90637590913746
H         0.67488069153724   -0.58583835173867   12.06076682610665
H        -0.69527506004119   -1.26268173951067    9.39374155281028
H        -0.06996035417643   -2.46702224911170   10.53968111353872
H         2.18852283557749   -2.14415983091645   11.16505956944206
H         2.80068422162707   -2.71613638286079    9.58987919584915
H         3.55173730647587   -0.25245503004339    9.23336410447477
H         4.51388370160115   -1.29545163871816   10.32936391610882
H         5.55512352789924    0.73009670528025    9.88124641690808
H         9.14047912234581    1.54318281725924    7.46987532490252
H        11.21983801732989    2.06354494218293    6.19072212465670
H        12.69227801799577    3.90306040678828    7.00421482062749
H        12.03905204053058    5.15714866642677    9.05870871196065
H        11.35255201530594    7.22582118267979   12.09177035254029
H        11.09599160663657    8.73888495495990   14.05769500205360
H         9.10221023047640    8.47920418838853   15.53143245499848
H         7.43197044553587    6.70861306910183   14.98062715013094
H         4.60479775711615    3.51866388717170   13.84761930334825
H         3.30548473103332    2.11395725826113   15.22695204029814
H         2.36031257920614    3.33367186302827   14.32798803962239
H         0.38725396769766    1.85836986612320   14.31748219316152
H         0.92334725805400    2.24180787479265   15.98114038928534
H         3.03617646565997   -0.01162724234223   16.15686538174876
H         1.72508957895653    0.48547270948686   17.27119431966724
H         2.49118960006397   -2.03251614617909   17.21175192903989
H         1.53442223171426   -2.09650715655330   15.70022321802403
H         0.13552536373795   -3.54066709834613   16.62393253521381
H         0.47537063299286   -3.49282575536857   18.37989267888764
H        -1.73782790672273   -2.16746060430749   18.58851703363461
H        -1.89165059920813   -3.89376019793236   18.12810344778071

