114
CSD_code = IYITEP | q = 0 | S = 0 | Stoichiometry = C51H59N3Zr | MND = 6
Zr        2.44241625071751    2.88321519066666    8.87283977530318
N         3.94625981265251    1.90410425809790    7.82690577048228
N         4.19072647673101    3.80559580744776    9.46928150034746
N         1.62829714548567    0.76137707724259    7.65832685485117
C         5.20780336195008    2.34012055362296    7.84402865980625
C         5.97712530696254    1.56204239641221    6.96266102632069
H         7.02798939118362    1.66138348765868    6.77157322700347
C         5.11850865630436    0.62629697880015    6.39474538617118
H         5.37697878886270   -0.13135401391370    5.67922911003327
C         3.84638609129969    0.85517557443912    6.95068415052510
C         5.44610916289072    3.49146591571162    8.78741794029443
H         6.24053588046639    3.23832857932503    9.50624026867751
C         2.57046229134207    0.25956840042608    6.91099393431987
H         2.39247163610047   -0.62094740149419    6.28786750836136
C         4.20691442156291    3.93421088500920   10.86333596960810
C         4.54352870952622    2.87119210186622   11.73989118451446
C         4.50492945350396    3.08937587374366   13.11017606199170
H         4.77461803817790    2.29078696061029   13.78559914475407
C         4.11679743353247    4.30692132684416   13.63842033287653
H         4.08484508734036    4.44721495022187   14.70872790100403
C         3.78135040349774    5.34502468092348   12.78848825006492
H         3.49779843663843    6.30014159393836   13.20622785505576
C         3.83317245234937    5.18277099077198   11.41370613904283
C         4.92935082708373    1.49729711732900   11.21826039076594
H         4.68879267477505    1.44755639216635   10.14380215467633
C         4.14893653767932    0.36665306847946   11.90017468122385
H         3.07739393599268    0.52773929752276   11.81761335506992
H         4.40677577368523    0.28671162364121   12.95356987298909
H         4.39667771673797   -0.58040352121054   11.42299028135684
C         6.42905900927208    1.24266805038831   11.41903947257161
H         7.03383210519840    2.02294442950231   10.96338529173610
H         6.71337441578240    0.29007356345326   10.97656682462967
H         6.66427860553973    1.21503731262145   12.48118895232126
C         3.60019267985481    6.35943747218769   10.49022358823144
H         3.65462661636758    5.97746779430308    9.46143556340891
C         2.23143467876755    7.01030328349866   10.68579801978115
H         2.12953314983883    7.86557449501382   10.02008856879068
H         2.10478627316891    7.36386451947551   11.70661811440320
H         1.43961116826128    6.29798790243311   10.46349636986865
C         4.71037516720806    7.39664796070847   10.69403155065826
H         4.63456279063856    8.18381717185838    9.94673059133857
H         5.69048044986568    6.93215179973284   10.60859715614787
H         4.63755073146990    7.85055199847214   11.68005943504772
C         0.40145645257608    0.06074864410715    7.73076960095715
C        -0.66438691580945    0.40461617416345    6.88832227990484
C        -1.86248777409218   -0.28430835223982    7.00564279531078
H        -2.68768780820549   -0.03414521845317    6.35715198152708
C        -2.00923875632415   -1.29801274695895    7.93247849778102
H        -2.94603003414730   -1.82914362492930    8.01030079464728
C        -0.94957158415603   -1.64167490013454    8.75047043846843
H        -1.06994157599107   -2.44781266303907    9.45686451872743
C         0.26479137304146   -0.97647327338387    8.66678820575991
C        -0.48662117022007    1.47080039210738    5.83211957567074
H         0.42883916525411    2.02740984770967    6.06901098614092
C        -0.30231209800565    0.81406183593434    4.46071289113835
H        -0.15434268411083    1.57403191639031    3.69638811229929
H        -1.17875153494049    0.22482235175391    4.19960275690811
H         0.56379493515526    0.15520206694467    4.46383982078855
C        -1.64732272551418    2.46566105567822    5.79762888393145
H        -1.40523152261479    3.29107629076831    5.13090676990727
H        -1.83604404648296    2.86791209269732    6.79030354669767
H        -2.55836658001030    1.99697809683915    5.43425297579093
C         1.43309926028495   -1.38967759420736    9.53801565841429
H         2.15951521164395   -0.56159727699021    9.56295684165929
C         2.12859090297807   -2.61156101506721    8.92842811346347
H         2.94651625820115   -2.93603130283286    9.56834190836278
H         2.53434784096752   -2.37757879610765    7.94709667763580
H         1.42427932317239   -3.43414406148173    8.82189903095898
C         1.00796536381983   -1.70159789350792   10.97516594420418
H         1.88730694990480   -1.80100864708626   11.60777787172031
H         0.45499648728698   -2.63613939200538   11.02590153579760
H         0.37959297420576   -0.91026035002684   11.37860478481266
C         5.93408127643684    4.74322934569286    8.00255814423561
H         5.17462196125471    4.99472005329729    7.26144016998054
H         6.01513045243113    5.56469748999504    8.71675753881321
C         7.25807476191422    4.50407468513551    7.34705286292655
C         7.34730635281403    4.27719328728736    5.97919560340591
H         6.44703399757597    4.29504522041589    5.38361446508753
C         8.57088901285355    4.02762584488544    5.38321838289303
H         8.62515450265123    3.85371229715963    4.31811025919333
C         9.72437487530813    3.99589558774080    6.14820642637273
H        10.67969566797753    3.79888194708032    5.68402552322488
C         9.64726796131548    4.22149329296137    7.51235444427166
H        10.54433311406446    4.20216578857467    8.11470470951755
C         8.42365739110629    4.47491256466533    8.10502724012323
H         8.37078939065004    4.65808209438388    9.16967771628198
C         1.30819262007084    2.23750494953281   10.69972744752170
H         0.96980038416941    1.20046538069682   10.58261059164424
H         1.82748225232986    2.37217915904291   11.65752284891891
C         0.18033223121427    3.16210819776636   10.59032948639799
C        -0.89820070924995    2.90271018246840    9.72142744265735
H        -0.90737198386013    1.97685031119501    9.15255788513290
C        -1.95722927886033    3.78223978883840    9.61870852456055
H        -2.78316741782570    3.55474354565272    8.95816616167241
C        -1.98495377173014    4.94696882671905   10.37196978083106
H        -2.81712670297125    5.62963683036041   10.29021728036217
C        -0.94385239493202    5.21149817079077   11.24837711919624
H        -0.96979646244704    6.10376369527010   11.85828639057183
C         0.11818349211591    4.33549703854679   11.36193292271886
H         0.91180348857169    4.53279565172873   12.07388198000727
C         1.29353741748328    4.46115567528653    7.77414529242471
H         0.47237993342538    3.89446425180174    7.30959356628401
H         0.87966307591562    5.30160853316237    8.34664246623183
C         2.27234811788278    4.90459166688592    6.78044589143675
C         2.78568163378112    6.21231825977610    6.76695169700932
H         2.43203310525404    6.92108259772313    7.50412796470610
C         3.70502346480932    6.61646660194696    5.81845831036179
H         4.07630909832167    7.63144470988802    5.83028062158812
C         4.14536389112715    5.73543306399014    4.84252880634475
H         4.85610747496243    6.05819083177293    4.09662702161436
C         3.65357072822850    4.43725569640237    4.83234353664613
H         3.98457760476135    3.74170930895276    4.07292684539621
C         2.73649024234219    4.02687221947612    5.77902671728609
H         2.34270206244840    3.01246779842514    5.72915992829454

