79
CSD_code = IYOMEO | q = 0 | S = 0 | Stoichiometry = C29H47P2Rh | MND = 5
Rh        2.33536087486817    2.56519106799187    4.69952566070317
P         0.65681267486591    2.73116617456252    6.16002327799245
P         0.82813853022489    1.84834933442567    3.19905894172625
C         3.02813257539393    6.93687883981877    4.95980675760947
H         2.31247974542482    6.81363030378201    4.16011070186482
C         2.86967148810772    7.95863292973760    5.87798240536934
H         2.03029242730330    8.63405466745595    5.79055112496934
C         3.78164456513669    8.11714514453446    6.90734538789682
H         3.65828302873278    8.91511872264170    7.62523495002855
C         4.85600674016726    7.24891716528893    7.01082214835004
H         5.57474865157043    7.37184340156399    7.80870447380765
C         5.01270908126233    6.22400773296661    6.09626760031069
H         5.85492679570372    5.55085140145934    6.17485136887143
C         4.09869078166815    6.05299678817191    5.05962897192236
C         4.25032045893940    4.94158313813736    4.09887599394164
C         4.24163983417584    3.60106470391487    4.59504077544082
C         4.33840470338045    2.52454454053086    3.65501554521825
H         4.57912923960110    1.52437786433046    4.03145494033982
C         4.60755612452864    2.79632686418856    2.29940941879649
C         4.63244376042702    4.10277840490800    1.87038858028610
H         4.83094091629507    4.31605852184748    0.82890064264129
C         4.44076498544028    5.17864931458606    2.75086238731566
C         3.87749760436596    3.23155571085459    5.93233967156908
H         3.81713476826758    4.02482304204833    6.67037544661293
H         4.37286944672406    2.34313233209300    6.33550227608750
C         4.50170466377100    6.57096230372727    2.19021925348464
H         4.79249629649602    7.29323176556863    2.94931477010284
H         3.52726522195663    6.86382052660674    1.79731170460287
H         5.21633159252759    6.61433644650610    1.37013885453050
C         4.91171263923584    1.68795350816686    1.33289465747764
H         4.12719710312591    1.60176839933188    0.58187747819060
H         5.00704708292428    0.73230290482878    1.84307841238355
H         5.84533820563347    1.89378976770517    0.81051868942895
C         0.02007216882569    4.39039561532253    6.74034168203399
H        -0.92131463215377    4.24177805907137    7.28335822847786
C         1.03044598002211    5.08318450258670    7.64555971749445
H         0.66492457797806    6.06825783273146    7.93375954009979
H         1.96980134296872    5.21490615256184    7.11421406625298
H         1.21581118728337    4.51276887661886    8.55261379906968
C        -0.22902890055850    5.24184699705026    5.50027296568991
H        -0.39512994467450    6.28303416219417    5.77270509555191
H        -1.09809947911982    4.89163230180595    4.94807578404864
H         0.64726077757696    5.18455021494121    4.85290533820808
C         0.82445439057013    1.77848166711629    7.75698844899606
H         1.58877881244370    2.33241130694651    8.31597556342465
C         1.40719690655972    0.40833853096334    7.42139365215793
H         1.80204313180510   -0.07729489527544    8.31221130723616
H         2.21876811500296    0.53124392153184    6.69732916161991
H         0.65191747919932   -0.24289737481353    6.98635738369014
C        -0.43259444635637    1.66324510467111    8.61068725381615
H        -0.21053736829332    1.09819804050682    9.51552016698143
H        -1.22390687131812    1.14253914526773    8.07625688746576
H        -0.80051808374734    2.64203333000393    8.90833105709017
C        -0.89650915599548    2.00736018724206    5.41812262813617
H        -0.91337606578560    0.95578473885383    5.71163840511600
H        -1.78465823909954    2.49006647810823    5.83596506899065
C        -0.88629081753112    2.11203669593635    3.89587845718950
H        -1.18159300859849    3.12056416295488    3.59969231313742
H        -1.59549982921548    1.40632518018710    3.45378800300643
C         0.68432447642122    0.07112784160027    2.62458796759269
H        -0.25466227394336   -0.06373835374516    2.07522872310470
C         0.68376030644225   -0.82226224787043    3.86044303200112
H         0.76123973724402   -1.87217174825652    3.57973569021362
H        -0.22824183418634   -0.69347521318898    4.43795758702998
H         1.53546123171747   -0.56586414201534    4.49221577021901
C         1.86409742258110   -0.29102747495862    1.73222427701505
H         1.86080775804094   -1.35742241454078    1.50810554848257
H         2.79206547581630   -0.04922988532059    2.24618174414402
H         1.83441708657251    0.25126324700500    0.79026203414337
C         0.73694899270050    2.79153462431407    1.58726030291272
H         1.64119679278874    2.48271049829398    1.04796941236128
C        -0.48089813332864    2.52891331112874    0.70939826613218
H        -0.41076110503349    3.12361030794992   -0.20111191963763
H        -1.39994059721004    2.80633338875472    1.22054412584805
H        -0.54660016348931    1.48233676929037    0.42175633618248
C         0.89051561956947    4.27585173966505    1.90854788195719
H         1.13861682891475    4.84277628586514    1.01254857317540
H         1.69544572182410    4.40615326440423    2.63771158220253
H        -0.02800397964976    4.68404553224221    2.32605782008245

