47
CSD_code = IYOVUN | q = -1 | S = 0 | Stoichiometry = C21H15F9PPd(1-) | MND = 4
Pd        7.27467263452667    3.42643544288456    9.30837795681340
P         6.42045309853072    3.42716955226078   11.46288312286197
F         7.85276587775015    3.42731175525134    6.54882657169329
F         6.24826349818853    1.42055332247042    7.95358241249180
F         9.32384502176522    2.35965459145024    7.72704894473684
F         6.10762821428089    0.94083154012444   10.05479161988270
F         7.90789887899292    0.45202225336559    8.97507867150558
C         7.00107286467255    1.45810834863348    9.11391430810638
C         7.24329643319960    2.10656651900198   12.42725395902685
C         4.69406648971420    3.42762986145480   12.02086682290125
C         1.98272498026872    3.42778159492453   12.63227848446873
H         0.92967248610672    3.42785097213686   12.87795668627873
C         8.48013841273070    1.68076844152814   11.94927933765235
H         8.85857326191499    2.07935035214351   11.00465923147895
C         8.72368827358766    0.23380491945649   13.84418684696031
H         9.29157523129954   -0.50548095533017   14.39175422184278
C         9.21277393835551    0.74287708950094   12.65193167258687
H        10.16301258998540    0.40428891756374   12.26599287945156
C         6.76995199169494    1.61416356730342   13.63634248203412
H         5.82320225945811    1.95813310675251   14.02865502802898
C         2.65580741002013    2.22864144162548   12.46185361566423
H         2.12574440311162    1.29205953433482   12.56576833307784
C         4.00219669955725    2.22448909796926   12.14734578061439
H         4.52252600596933    1.29187493759089   11.98453662513724
C         7.50688699082106    0.67507718214069   14.33621815089726
H         7.12861855845175    0.28550734983099   15.27167642743127
C         8.46067322006711    3.42731021265634    7.76108113636367
C         7.24382740718958    4.74784894614466   12.42664860514582
C         8.47993178044516    5.17465994210663   11.94772754199073
H         8.85751898709017    4.77719937965799   11.00228108378507
C         9.21299913059293    6.11202140002680   12.65067032599084
C         8.72501636902679    6.61964988963838   13.84398431740251
H         9.29331476523003    7.35840436247698   14.39183853977688
C         7.50882425038637    6.17753068965480   14.33679099955868
C         6.77157414859534    5.23884353606243   13.63675653927926
H         5.82541839044073    4.89402435620152   14.02975202217278
H         7.13136212227902    6.56601149679129   15.27302590932736
H        10.16280480251461    6.45122524560310   12.26420442550324
C         2.65647785536844    4.62685609670166   12.46410808824624
H         2.12693963005223    5.56353806345246   12.56979334171156
C         4.00287721277247    4.63089384511284   12.14961402122898
H         4.52362347592751    5.56355828679101   11.98852594400688
C         6.99726081493881    5.39419744341904    9.11250948529570
F         6.24310794658597    5.42916096087446    7.95296223788771
F         6.10367871742653    5.91043736835877   10.05392520276669
F         7.90167719421123    6.40218398716305    8.97184586977247
F         9.32273527390656    4.49597375473353    7.72769416915563

