69
CSD_code = IYOZUR | q = 0 | S = 0 | Stoichiometry = C32H30NiO6 | MND = 6
Ni       16.31440323472632    0.26287761459906    2.47110754640092
O        14.91167049399200    0.25849251107616    1.33665738730673
O        15.31921319263983    1.69261045828958    3.69834980551795
O        15.40980743036773   -1.40196676911470    3.78588531614744
C        14.47758531546250    2.47846633823652    3.19199386032924
C        15.28227858717752    4.34422794064083    4.59256714249274
C        14.03333521300345    1.15269640989450    1.16785363875333
C        12.95503036279959    4.33430946401065    3.99880925704407
C        13.20194999678159    1.00412217474378   -0.06109558639619
C        13.79546666001604    0.46873358666901   -1.20100367932808
C        11.85809051110290    1.36215645712796   -0.09783368130095
C        13.06553870297749    0.31817706106681   -2.36469639950056
C        13.84853874683400    6.11105024652707    5.34408290958412
C        11.73039401222079    0.68613628972214   -2.39813696780105
C        14.21293288422812    3.74412359680307    3.93184602076335
C        14.29403301166195   -2.14011304913124    3.32844431130089
C        12.77633351649821    5.51010195055994    4.70519174806488
C        13.78675444392924    2.25687487586824    1.98932505354921
C        11.12854355911864    1.20161476264656   -1.26196631645052
C        15.10261102669354    5.52504334350185    5.28709577673015
H        11.37702193975055    1.74738063081314    0.78878358168870
H        10.08418229567335    1.47763644221728   -1.28313378255914
H        11.15751692279578    0.56686022510192   -3.30614239548221
H        13.53617224915859   -0.08874393453549   -3.24783313097327
H        14.83574060785664    0.18439780243506   -1.15543360888964
H        13.08536456736334    3.00063556300990    1.65111160618317
H        12.10980058520867    3.86339313089301    3.51913748672431
H        11.79529608228651    5.95988479537446    4.75962093865538
H        13.70492757656392    7.03202945375014    5.89024186147676
H        15.94003753638562    5.98846028105240    5.78815299018406
H        16.25200125991406    3.87086374198091    4.54261757418021
H        15.13084609911809   -0.81578399917113    4.50185920721654
H        13.48162049147997   -1.49180685282874    2.98987393020106
H        14.63815813007079   -2.73638325873780    2.48600993235099
H        13.92382892162874   -2.80198309862939    4.11979214743642
O        17.71701469292068    0.25838463350302    3.60581294551484
C        18.59621316671948    1.15185170148738    3.77391107255078
C        19.42867037515612    1.00251232658205    5.00202385338931
C        18.83657692023069    0.46458725615271    6.14151962867716
C        19.56738650888152    0.31310766254926    7.30453686739648
C        20.90204968189948    0.68278761084109    7.33778441799610
C        21.50253143914128    1.20079940463328    6.20204398999059
C        20.77212129834048    1.36214413478429    5.03856282549926
H        21.25234620527768    1.74932759614469    4.15234432849606
H        22.54651479084223    1.47827439694838    6.22305132677612
H        21.47563232362987    0.56291154628931    8.24527514911041
H        19.09779119942151   -0.09589130889887    8.18727672793717
H        17.79665517770850    0.17892568728052    6.09617521391454
C        18.84247986380962    2.25588231724353    2.95200592956659
C        18.15010423969792    2.47744930880939    1.75033911124263
O        17.30742856625614    1.69177508943382    1.24521660768084
O        17.22195179386159   -1.39998997642401    1.15253197776353
C        18.33587789685751   -2.14071344312383    1.61012845082556
H        19.14861553617491   -1.49423233347308    1.95130759718481
H        17.98947325515552   -2.73719997987809    2.45148843984245
H        18.70655477314324   -2.80210022679415    0.81845570711841
H        17.50340258701540   -0.81209602161560    0.43894166924842
C        18.41385022527131    3.74245132866072    1.00917345393043
C        17.34353768238788    4.34190081308216    0.34940340531146
C        17.52242028676965    5.52161859791788   -0.34715079703211
C        18.77660973983566    6.10709039024136   -0.40713112454279
C        19.84968458788151    5.50681802557223    0.23094122353780
C        19.67180427813499    4.33213958029461    0.93938573103433
H        20.51761005966346    3.86159203334130    1.41840566570527
H        20.83077260817681    5.95619055505005    0.17417214275258
H        18.91962102262065    7.02712452944934   -0.95502501590819
H        16.68430959909939    5.98451374186920   -0.84753515781100
H        16.37377614991138    3.86885713148971    0.40163016681861
H        19.54458530062516    2.99942970411179    3.28916098688874

