67
CSD_code = IYUDOV | q = 0 | S = 0 | Stoichiometry = C22H40S2Si2Ti | MND = 12
Ti        0.72259140349266    0.03291326425546    3.01427217888967
S         2.50826211146673   -0.20510288633704    1.46075941537258
S         2.08175881227182    0.23917434876496    4.95516635898006
Si        3.93151007677549   -1.80787139249225    1.60485847874858
Si        3.52850664835266    1.81284856457918    5.16615486216114
C         0.81916484811459   -2.21361484525819    3.49418924603769
C         0.25774068456435   -2.10460126122383    2.20056046483627
C        -1.01324301228704   -1.51572083212255    2.32947895786161
C        -1.24513940840871   -1.26415952676059    3.69548847277707
C        -0.11871852426432   -1.69338380486157    4.41594453278877
C         0.97874849703163    2.27546116192948    2.57789002402984
C         0.11707919154081    2.18137747050214    3.69561499016832
C        -1.09612948763309    1.61855888703246    3.25959787365086
C        -0.99356193009856    1.36830157051220    1.87762624204068
C         0.28301506453406    1.77226815883801    1.45420755977920
C         3.21214272692671   -3.50619841640106    1.08093993893471
C         4.60047378410764   -1.93713759946195    3.38776128369526
C         5.31909117099154   -1.34582267426083    0.33946130458174
C         6.45468380587729   -2.36352494909580    0.43051287483336
C         5.88319104068895    0.04499098795793    0.62636596484043
C         4.75421032911998   -1.35456949205166   -1.08155302693930
C         2.73730017083868    3.52639200467015    5.50398517200339
C         4.61309744440128    1.92488264375164    3.59957663218399
C         4.55646862497146    1.32551772552227    6.73006394151967
C         5.69915902587725    2.32091181386478    6.92235485766679
C         5.14676332339849   -0.07632799587200    6.58434460351380
C         3.66224002515989    1.34693233559206    7.97037615473983
H         1.73874717868185   -2.71813121171066    3.75940972690209
H         0.66605581465555   -2.50952153307100    1.28514172585846
H        -1.73423606943012   -1.40732027147339    1.53078521618852
H        -2.17627820070917   -0.92584760464833    4.12827431438383
H        -0.01763304952932   -1.71320627249030    5.49374260380418
H         1.94541819560467    2.76026042023276    2.54581121646432
H         0.29843195612822    2.58009951424895    4.68394563159265
H        -1.99195209725176    1.52703223407478    3.85843654422248
H        -1.79811286586852    1.04817812902865    1.23032556184722
H         0.64378381826897    1.78742260879863    0.43347793246177
H         2.56732026856947   -3.93367104819741    1.84230095634391
H         2.64139850137671   -3.43370289073621    0.15955332746686
H         4.01808521049527   -4.21247794477458    0.90875724689473
H         3.90203805331505   -1.48333913851108    4.08857495839931
H         4.75627294815564   -2.96999466477154    3.68331638422744
H         5.54781214236225   -1.41969088354147    3.49604912801844
H         6.10522421004273   -3.36272587383325    0.18328874442868
H         7.25074617070037   -2.10371618867058   -0.26678559116812
H         6.87619504291613   -2.38860287372666    1.43243810853259
H         6.32640578924879    0.08894677158770    1.61811860264808
H         6.65395576658349    0.29892979883397   -0.10106878389492
H         5.09604973930478    0.79214156183404    0.56610263708135
H         3.92005739500071   -0.66106801322372   -1.15999809691117
H         5.51979897119879   -1.05399668351010   -1.79638409365725
H         4.40622125291362   -2.34743111626483   -1.35606688880169
H         3.49144440640443    4.21693175438289    5.86790978614736
H         2.30482070993858    3.96464161429551    4.61006326845018
H         1.95899416038662    3.46768430043556    6.25945954638147
H         5.55111391263527    1.39471162414901    3.72586574532193
H         4.09991221008494    1.47717793857991    2.75042298319405
H         4.85036345849597    2.95424819926386    3.34956863032721
H         6.29592617241662    2.04648279912029    7.79182707554144
H         6.35277122462465    2.33663542743861    6.05361537603503
H         5.31910983378643    3.32699073659885    7.08048686138384
H         4.35454572713323   -0.80795823254646    6.44815878196957
H         5.81751268032169   -0.13003212699487    5.73043722720344
H         5.71186103776166   -0.34433045184867    7.47683739975886
H         3.27696209395144    2.34672092370909    8.15533277834370
H         2.82097206380170    0.66996154572986    7.84041495734957
H         4.22437771771310    1.03227186063930    8.84925310955811

