70
CSD_code = IYUFOZ | q = 0 | S = 0 | Stoichiometry = C22H42CoN3P2 | MND = 4
Co        8.50394587507360   11.74843055283517   11.71906146391132
P         6.80828173188060   10.62193194088491   10.83700118621276
P        10.30612821243692   12.40403784185219   12.83413888166863
N         8.87373032371029   10.12705705500904   12.51946714469629
N         8.17975428671140   13.17216553404249   11.01570617314860
N         7.95422856720827   14.16292379346905   10.52586881668923
C         8.06200755524026    9.02849287793510   12.54275411000623
C         8.67534641277990    8.00806632015261   13.22856552587617
C         9.92879679050903    8.50120677422868   13.64892816750325
C        10.01240890225786    9.79638177388450   13.19803182434521
C         6.71409619251591    9.12242318708683   11.90382646269823
C         5.04649913121637   11.30676386029044   10.89814151031091
C         4.99015253683049   12.01769089789367   12.25567293615867
C         4.82703920574689   12.34390919793777    9.79815322768923
C         3.94956739799207   10.24486968719411   10.83416577412359
C         7.25616060530765    9.94091377101805    9.13343826051137
C         7.58247199256450   11.11076283611448    8.20321005343979
C         6.19936840175032    9.04242707521387    8.49913885959886
C         8.55010893958269    9.15244215829847    9.35745962828085
C        11.10720950534473   10.80950179464107   13.29348402486128
C         9.83805828794772   13.17294090407195   14.49431521203025
C        11.01681938518021   13.55147624974071   15.38518074658519
C         8.95377236769201   14.39491415208001   14.23906254991582
C         8.97549008768296   12.11372419684547   15.18723877298361
C        11.69489313085730   13.35153681593033   11.96804976266571
C        11.33812984576645   14.83003940585961   11.82488355431141
C        11.73367265787247   12.72245558128161   10.57006954083853
C        13.06671771047354   13.21178359679635   12.62650294745073
H         8.27855638217077    7.02611203924411   13.41029785010737
H        10.67244201411149    7.96700871248959   14.21134697191029
H         6.45146847358029    8.22027679834273   11.34422314893970
H         5.94679832234763    9.27927756835769   12.67010134511342
H         5.73086447355134   12.81709077232492   12.29401494968878
H         5.19030890861630   11.32778212802842   13.07462988640166
H         4.00608975163031   12.45600836457551   12.41571982098219
H         3.92102489391862   12.91309995441716   10.00481408410108
H         4.70576378318011   11.87023728576531    8.82696294148484
H         5.66024045207465   13.04238567365082    9.75218279161339
H         2.97912125910068   10.73061736015009   10.93646166839155
H         4.04218990389216    9.51878581114873   11.63769772109713
H         3.95735540708153    9.71368738252795    9.88750731530469
H         8.02155373151083   10.73656237852435    7.27891144071598
H         8.30372824543892   11.77657116367419    8.67690509103469
H         6.70006491093172   11.68838114447478    7.94624408916779
H         5.33329953394457    9.61695921780666    8.17904461357091
H         5.87283098845088    8.26178717340991    9.18331857876282
H         6.61935108162005    8.55819623586253    7.61757448883953
H         8.96054911932824    8.82800010989301    8.40176311413415
H         8.38994974311182    8.27279396733125    9.97605584216120
H         9.29151445472138    9.78566775434231    9.85028351369779
H        11.56766159315619   10.83759937334773   14.28510827241676
H        11.89217965709991   10.58230915709398   12.56362589001496
H        11.54690120077847   14.41601939217704   14.99251555516958
H        11.71780547690103   12.72641740732950   15.49508279394982
H        10.64997085185452   13.81130154019428   16.37812482523557
H         8.52587798613327   14.74457951799318   15.17808075499505
H         8.13497581022509   14.13119678819936   13.56964988879421
H         9.50793814708305   15.21620733773233   13.79546751116409
H         8.54428044755475   12.52218667800328   16.10064765188519
H         9.54859749440443   11.22734045893953   15.44780847149620
H         8.15779998937029   11.81021241521451   14.52960965692028
H        12.00970310503033   15.30268945256674   11.10854115050923
H        11.44136385981463   15.35512340129335   12.77141302077800
H        10.31957939736863   14.94939213704573   11.46086909216073
H        12.51226644499183   13.18531103617068    9.96535834952055
H        10.77790785652075   12.86587361324398   10.06500614531276
H        11.93557291331724   11.65314303697747   10.62051375111195
H        13.37652760160747   12.17246384916022   12.69910164034995
H        13.08278887853895   13.64622304112606   13.62114577011356
H        13.80587941376929   13.73655153727170   12.02115142238794

