63
CSD_code = IYUGOY | q = 0 | S = 0 | Stoichiometry = C28H20Cl2F10P2Pt | MND = 4
Pt       -0.00014595099180   -0.00004236844803   -0.00011245567582
P         1.07702999005494   -0.88009066442701    1.78777425460849
Cl        1.14734766296076    1.90879220511988   -0.65863138313301
C         2.69024321063629    0.03060950430394    2.28954758555012
C         2.37555204950201    1.39550762609004    2.92543191217308
F         3.44775727823534   -0.69112807595038    3.15585843282112
F         3.46250965258083    0.21857375038467    1.19611413881108
F         3.27672997296370    2.33109701768830    2.65428550207293
F         2.28817903760614    1.29288461950380    4.25494414710624
F         1.18565200914803    1.84003151510872    2.49762303271160
C         1.78733580338849   -2.52839327425146    1.55730792251268
C         2.71368329584955   -2.68250317668230    0.52765744486196
H         3.00710976407642   -1.82564522803549   -0.06539553225980
C         3.24657479483298   -3.93075207288144    0.26589459604494
H         3.96876315166972   -4.05095108967982   -0.52760348499565
C         2.84594470648906   -5.02585548245305    1.01461321291133
H         3.26239650722945   -6.00047207389812    0.80828692013000
C         1.89885461543808   -4.87706685116811    2.01468948948983
H         1.57147275023446   -5.73545338674827    2.58197212598482
C         1.35992779591607   -3.63218609720356    2.28579116040177
H         0.59823089547036   -3.51941750720532    3.04325485023382
C         0.22932107210736   -0.80102678245758    3.38141547645687
C         0.76666812728292   -1.35832449696432    4.53911321377895
H         1.71410297975230   -1.87728895220936    4.50966874656990
C         0.08108438789325   -1.23180779854075    5.73396467674599
H         0.49425311753593   -1.66263594126564    6.63338642210337
C        -1.12630261167674   -0.55349051563581    5.77912566006309
H        -1.65494298496854   -0.46101135954063    6.71598407779398
C        -1.65411066094915    0.01144230532904    4.62890048825139
H        -2.59082853236115    0.54616640485225    4.66776896974061
C        -0.97751214096725   -0.10889392264855    3.43021444673370
H        -1.37169101929372    0.32859281582223    2.51857407471843
P        -1.07704477118703    0.88010339401343   -1.78775886824984
C        -2.69023596236711   -0.03055255650634   -2.28969563375118
C        -2.37551888797154   -1.39553668551664   -2.92541556714259
F        -3.27686175747270   -2.33101863853298   -2.65443808775234
F        -2.28780964463791   -1.29298691393485   -4.25490558773678
F        -1.18576168461737   -1.84013753674028   -2.49728705382487
F        -3.44754044227392    0.69112737946655   -3.15623284230972
F        -3.46274217801770   -0.21838177570974   -1.19641320194982
C        -1.78741091747587    2.52837073014490   -1.55735069191921
C        -2.71366094187373    2.68247762373810   -0.52762127913528
H        -3.00701997520070    1.82561335021617    0.06545981079110
C        -3.24652404567449    3.93072379038146   -0.26581480042748
H        -3.96873993575997    4.05090223745128    0.52766638532308
C        -2.84593467901591    5.02582285659493   -1.01456247410344
H        -3.26245504671911    6.00042211265613   -0.80828660577232
C        -1.89890873969365    4.87703204419317   -2.01469365052157
H        -1.57155215907349    5.73541278323064   -2.58199689459825
C        -1.36003263259740    3.63215064604934   -2.28585608355325
H        -0.59826761413117    3.51940963673266   -3.04326132319828
C        -0.22932763011719    0.80099940661779   -3.38138989173729
C        -0.76670969713802    1.35825739627477   -4.53909642100015
H        -1.71411304439313    1.87726981930015   -4.50965013941980
C        -0.08110793090805    1.23180786848088   -5.73394107128080
H        -0.49432269448769    1.66258177850422   -6.63336820501864
C         1.12634131725298    0.55359168093307   -5.77909939617244
H         1.65492728186673    0.46105078297668   -6.71597853804697
C         1.65418924547834   -0.01128926298813   -4.62886835827101
H         2.59091213252379   -0.54599522590569   -4.66774611386793
C         0.97756648269154    0.10897560897706   -3.43018426617876
H         1.37177651768263   -0.32847762432482   -2.51854041841070
Cl       -1.14730069237160   -1.90898735277482    0.65890714400309

