77
CSD_code = IYUGAK | q = 1 | S = 0 | Stoichiometry = C28H41N6OZn(1+) | MND = 5
Zn        2.05331532538770    4.46381790386340    8.37056364894940
O         3.86076517993701    4.24719903045754    8.09405149221477
H         4.47579566852597    4.93437282433426    7.84275056975147
N        -0.05292861394166    4.82463757122525    8.63782828485005
C        -0.16888897327090    5.36900228185443    9.98238778187014
H        -1.20709177400474    5.35350558916599   10.34092043866943
H         0.17006627241482    6.40975154537881    9.96515678929399
N         1.87692405369474    4.16235683191180   10.41018076842139
C         0.71825737272224    4.59733311263252   10.92567141543144
C         0.35230217528880    4.37892478346912   12.23243272167042
H        -0.58561079440137    4.74891874680558   12.61131835182041
C         1.22958507421369    3.66316359353768   13.05356491104388
H         0.96748767005680    3.46895148421584   14.08168633663791
C         2.41440427375132    3.21273194301583   12.54332986250816
H         3.09938689094975    2.66128767124395   13.16261498331837
C         2.74659081696834    3.47892461677687   11.19139897826400
N         3.87216673671316    3.06695123713381   10.61026550098851
H         4.02465951380874    3.41570565116256    9.65924725774605
C         5.00360307475488    2.42141565343816   11.22622186852712
H         5.41241033167102    1.72437797484281   10.48965048744485
H         4.67904478720702    1.83935973066341   12.09005400233946
C         6.12601216463314    3.39681371450515   11.65460708342618
C         6.57981946341228    4.22624860177505   10.45212091140565
H         5.77499565922799    4.86632936941074   10.09926640153433
H         6.89747393593243    3.58113619079638    9.63675095156668
H         7.41812225017833    4.85904042316678   10.73219640904805
C         5.63044137754001    4.32926262198353   12.76044042517269
H         4.76471970045699    4.90027661998941   12.43138752674514
H         6.41440530990449    5.03068852444657   13.03443822799133
H         5.35850900623940    3.76646085427544   13.65024394042603
C         7.29898218313197    2.56368265463847   12.17388352945688
H         7.68789534001834    1.91552741915442   11.39232526356461
H         6.99299082494762    1.94365788935160   13.01317313165621
H         8.10289348807019    3.21394605216190   12.50797743191651
C        -0.69694200152248    3.52602611707076    8.52003080706639
H        -1.77512985729300    3.62005483558144    8.33550707234151
H        -0.56292370444277    2.99204901067641    9.46615202058853
N         1.26285719237107    2.89629194658550    7.24860558099996
C        -0.04993390800756    2.70092098510480    7.43824929827646
C        -0.77983869237783    1.76710616346607    6.74146985710949
H        -1.83409355632536    1.64475521983991    6.92514159089294
C        -0.11561951498953    0.97701688845090    5.79922643720872
H        -0.66047409652607    0.23749835164805    5.23380841116936
C         1.22555057947597    1.15067302110598    5.60492110863602
H         1.74996616811929    0.54949689068233    4.88285111168567
C         1.92774815079423    2.13316340115168    6.34649606896404
N         3.22340032627247    2.39510086149085    6.17713852436632
H         3.60966559562554    3.09421267263394    6.82431748147617
C         4.20684061223384    1.57574715593227    5.51636579536992
H         4.85436535996080    2.23658064786358    4.93187825277368
H         3.72246401207975    0.88719903088770    4.82466103844232
C         5.08072337973519    0.76892465321099    6.50680088058510
C         4.18908401039978    0.00290754505297    7.48586567084060
H         3.61988956627468    0.68735350211675    8.11203489868445
H         4.79811977309320   -0.62429091491580    8.13182613072660
H         3.49165530175885   -0.63896747455222    6.95233624684984
C         5.92657839225834   -0.21601398745280    5.69771959134192
H         6.52588655545049    0.30907778154166    4.95771050310451
H         5.29673238083964   -0.93618894416295    5.18094356690122
H         6.59863456735784   -0.76314787715118    6.35347604348745
C         5.99968638079186    1.71721204747266    7.27908480105908
H         6.68033999078612    2.22552516211200    6.59982452337393
H         6.59519345375318    1.15688586293587    7.99606898658274
H         5.42166426195836    2.46499037616833    7.81577310013390
C        -0.50529800040142    5.75361884561668    7.61740648732046
H        -1.46984567383332    6.21263727172601    7.87743598057380
H        -0.63715031445338    5.19680616707457    6.68335067837206
N         1.79316402159842    6.48554784756470    7.63150020169674
C         0.52966523802110    6.81670258932724    7.37590241615885
C         0.18181410927112    8.06993262317194    6.88695436665329
H        -0.85285860302821    8.30369226363570    6.69107987137862
C         1.17828674768173    9.00286959542488    6.65736213718808
H         0.93500048776935    9.98300433026760    6.27798688309174
C         2.49186846925330    8.65331208767708    6.93353996378704
H         3.29934696015206    9.34962783466954    6.77826481892545
C         2.74822791278491    7.38452408071029    7.41942684932254
H         3.75498219911264    7.07290281778274    7.65519625883054

