103
CSD_code = IYUGUF | q = 0 | S = 0 | Stoichiometry = C54H45P3Pd | MND = 3
Pd       -1.59833792174700    0.75496280720896   10.34894580530354
P        -0.31355947724974    2.66470517783642   10.54766432728920
P        -0.83328910251399   -1.42060214315486   10.06726713883826
P        -3.93014081258566    1.03501509511110   10.25123469269213
C         0.21837712100666    2.79585118013617   12.28469377523355
C         0.16814333347154    1.60759997044543   13.01072999284707
H        -0.17119973198552    0.69736386058772   12.50726823929391
C         0.53752592838627    1.58380357179983   14.34166883876261
H         0.49480164462900    0.65908141780323   14.89950051920446
C         0.95321361250608    2.75348983960594   14.95874251267164
H         1.23880066565032    2.74284432201906   16.00076462617489
C         0.99502630123228    3.94006065042931   14.24411308694495
H         1.31323090708764    4.85099560830673   14.73118816958358
C         0.62851395020688    3.96700218845540   12.90985361927033
H         0.64657756604433    4.89717503575766   12.35795053613467
C        -0.76657099206350    4.38126425965922   10.14481232603413
C        -0.16869434085210    5.11741858881728    9.12962942162527
H         0.67401490848874    4.70637482223382    8.59052849552724
C        -0.65268084304554    6.37392493389638    8.80965105056762
H        -0.18163516058697    6.94507464096246    8.02198487929326
C        -1.73822181944192    6.89850751945654    9.48965023957676
H        -2.11431168360409    7.87848495432005    9.23401157307762
C        -2.34843275696028    6.16156702412937   10.49340078879087
H        -3.20274542275923    6.56420373642048   11.01835585467252
C        -1.87043337642714    4.90767481519237   10.81326457554460
H        -2.35442845779355    4.31533974339968   11.58074887564459
C         1.27125732093528    2.43506262704089    9.67146303139630
C         1.26462123764474    1.51023988022959    8.63229710185036
H         0.33070848923002    1.00189493948660    8.38626757738605
C         2.42751276700724    1.21988445976906    7.94467500350825
H         2.41905800961153    0.49408446372100    7.14418334918437
C         3.60843890110452    1.85126495100363    8.30040136447365
H         4.52355827185285    1.62014918317852    7.77449697290285
C         3.62118875977103    2.77376761474951    9.33504816170461
H         4.54581414328644    3.26080766749969    9.61118427080280
C         2.45709646025600    3.06953099637733   10.02144763386220
H         2.46796025245653    3.78358570164941   10.83333891768198
C        -0.99596366069563   -2.28141292585723   11.66231643582898
C        -0.36288164571665   -3.47400643300456   11.99159855764629
H         0.28851932950196   -3.95533295879383   11.27456764160240
C        -0.56266923461408   -4.03379664323010   13.24135350241684
H        -0.07159422107302   -4.96174448765418   13.49835132009353
C        -1.38767593499313   -3.41070528717981   14.16431851863961
H        -1.53730586617058   -3.85484179129867   15.13789572212689
C        -2.01395809189912   -2.21626930495898   13.84351330754929
H        -2.65092199734890   -1.72469688426912   14.56527087725243
C        -1.81385700130845   -1.65237673918557   12.59829247514669
H        -2.29354212112147   -0.70698228499173   12.32858296602688
C         0.72789494808419   -2.10246775930218    9.41716148453880
C         0.81009177152454   -3.01873269452607    8.37622333785244
H        -0.09329503917365   -3.41471246209445    7.93274703714277
C         2.04972665371609   -3.42044895954862    7.90932057177779
H         2.11186479409871   -4.13513856100400    7.10075179179744
C         3.20807994242993   -2.90911919218115    8.47053017838243
H         4.17230486532144   -3.22416841212749    8.09862366225176
C         3.13050162622585   -1.98637924340679    9.50279212041214
H         4.03287184181577   -1.57784255125126    9.93443308952487
C         1.89609778305821   -1.58002010046941    9.96773346308100
H         1.81910028672694   -0.84155569872572   10.75777711481088
C        -2.09819636652004   -2.23863660012760    9.03830563285104
C        -2.62695782844089   -1.45538534535891    8.01555036150117
H        -2.24096649974077   -0.44484270467650    7.87600682292230
C        -3.63319348591856   -1.94397378385934    7.20635808356697
H        -4.04039193582396   -1.33292966631348    6.41384120941647
C        -4.13366379415141   -3.21709884110521    7.42929515568302
H        -4.93202264861570   -3.59845210409583    6.80956486949902
C        -3.61990345884235   -3.99641959657824    8.45234768613647
H        -4.01808404964503   -4.98591152893214    8.62761135930981
C        -2.60125049911330   -3.51445150649453    9.25608621657772
H        -2.20501002388800   -4.12261576624838   10.05782592817441
C        -4.57977605157524    1.52529261489171   11.88019208881734
C        -3.62074927551429    1.87201933079485   12.82807738077223
H        -2.56526263406699    1.81395066444892   12.55407798872542
C        -3.99874204408021    2.27924798911023   14.09315226846944
H        -3.24753713038089    2.55056803467130   14.82153347117556
C        -5.34391199242488    2.33023470007548   14.42263201406431
H        -5.64709295115150    2.64496457282220   15.41079630028422
C        -6.30268825099140    1.96809844647400   13.48926528280275
H        -7.35021863832966    2.00054262185942   13.75376953263900
C        -5.92714991009417    1.56471958433641   12.22014403322181
H        -6.67571451570774    1.26991422373551   11.49703692807893
C        -5.28098398508492   -0.00008410487985    9.60275381503289
C        -5.99844224369220    0.29405379637881    8.45017516592864
H        -5.82354444068095    1.22591464741686    7.92979404527984
C        -6.93552709182484   -0.60510250521258    7.97212428658739
H        -7.49588676273544   -0.37073691775692    7.07787258242501
C        -7.15520426216889   -1.80256000440455    8.63108636311749
H        -7.88637005645795   -2.50190044601296    8.25223118293047
C        -6.43066106850151   -2.10768286593694    9.77340038668892
H        -6.59350077209329   -3.04622638461456   10.28348372805615
C        -5.49366783492875   -1.21501753414192   10.25111966721947
H        -4.90710805522630   -1.45093836553881   11.13118404105807
C        -4.09378729736617    2.57102811610581    9.27638899953643
C        -3.10736491092608    2.78538692542287    8.31687945005774
H        -2.32037271300658    2.03668577700089    8.18872570356351
C        -3.10830948166644    3.93871914101171    7.55665485874358
H        -2.33944968335951    4.10247062165077    6.81535362627913
C        -4.08930939600962    4.89538514271744    7.76251679980858
H        -4.08578041169494    5.80549614733469    7.18056249241041
C        -5.06871478133749    4.69092069683505    8.72037533302569
H        -5.82907380193152    5.44190543945216    8.88220312999847
C        -5.07720593912217    3.53146577724496    9.47561662450509
H        -5.83889870572093    3.37697683018190   10.22724458181687

