52
CSD_code = IYUGAM | q = 0 | S = 0 | Stoichiometry = C23H21AuN3O3P | MND = 2
Au        2.83334636522360   -0.49923791341165    9.81531529620520
P         2.78724871111393    1.15897849303838    8.32791160311140
C         3.38142316610336    0.74594194025815    6.66263960750961
C         4.47759334316490   -0.10927557733568    6.59276598907459
H         4.89097577248374   -0.50951949325104    7.51014990413165
C         5.01860013504174   -0.44253680620698    5.36579328948168
H         5.86827311441419   -1.10655866390634    5.31262373121507
C         4.46370218830718    0.07167195006864    4.20417514395180
H         4.88215702403680   -0.19191178641625    3.24440354794132
C         3.36960193620398    0.91857832393713    4.27112241177775
H         2.93656123116889    1.31495509273101    3.36448720324419
C         2.82563811767211    1.26055119315478    5.49664448177403
H         1.96681846327253    1.91588690710397    5.54693378307326
C         3.84893919740805    2.55646202040165    8.78120999877411
C         4.47014553781146    2.55200849523794   10.02566056599621
H         4.31918731913771    1.72062746480526   10.70199978488651
C         5.28751889662620    3.61090386532622   10.38371954913641
H         5.77058888384214    3.60898292860894   11.34904210838997
C         5.48731499036392    4.66403828310531    9.50691089732521
H         6.12616574861622    5.48784705094332    9.78892191237486
C         4.87426155300071    4.66286024634966    8.26240738201238
H         5.03642021407689    5.48293494072494    7.57832448922229
C         4.05755660899561    3.61114325393513    7.89447072768985
H         3.58065833357697    3.59954522419359    6.92339357463994
C         1.14469088165646    1.86740282744001    8.04407342481560
C         0.18909136523248    1.01044998716547    7.49875430770544
H         0.47563958539366   -0.00019164952450    7.23614591660812
C        -1.10307612922089    1.45460541897663    7.29966694686702
H        -1.84097921089120    0.79340114317047    6.87063002730563
C        -1.45227493142310    2.74819666498435    7.65924436589509
H        -2.46311059179291    3.09518217002178    7.50548427269792
C        -0.51084910093047    3.59195190861553    8.22424563246807
H        -0.78851003064977    4.59442899935026    8.51476983525796
C         0.78813908967351    3.15558158993922    8.42365281782411
H         1.52172652667971    3.81108095732770    8.87185867590845
N         2.96188980779384   -1.94904200077103   11.27522751284506
C         3.80165858696395   -1.50227064572364   12.22517593788636
N         4.03480416136567   -2.31854428388282   13.31169759582718
C         3.43781409255126   -3.55340475435180   13.46942420687344
N         2.58626087767699   -3.92349069372219   12.45698119361192
C         2.32468314816726   -3.13937498849690   11.33047493883271
O         4.33369460466634   -0.40521454166332   12.11012989825351
C         4.94122086119331   -1.88009754420644   14.35498424236851
H         4.40672559782799   -1.80569885624830   15.30222506053373
H         5.33126794183403   -0.90889848201129   14.06018332351137
H         5.75073812452464   -2.60160629241431   14.46557142125995
O         3.66031371659966   -4.24654275620748   14.43639066074886
C         1.90996889756231   -5.20366912667345   12.54489503733391
H         2.23484116275145   -5.69026318275289   13.46145451279056
H         2.16477791781938   -5.81121613691047   11.67673982842261
H         0.83125035891839   -5.04735685919781   12.55662980790392
O         1.56760583640193   -3.52477630562288   10.46756161468405

