103
CSD_code = IYUMAR | q = 0 | S = 0 | Stoichiometry = C36H60P6Zr | MND = 12
Zr       -9.22703402334863   13.26215679175564    3.94242821206847
P        -9.52287784729059   10.74965419461567    3.46196222479568
P        -7.94819451236369   10.61322364532316    5.03014229314905
P        -6.90406054408697   12.56395013855052    4.81428732088837
P        -8.12805079956167   11.10654929346496    1.84631691728607
P        -6.43545071913783   12.29850239100455    2.72128687453575
P        -6.49332340945240    9.34589413271133    3.92625389556181
C        -5.69183453538889   10.56018666193301    2.74718192977620
C        -6.83624576045806    9.75813296544574    2.13476620804496
C        -4.16697768348077   10.54616440001869    2.57454142438498
C        -3.61270287729988   11.72737260000231    3.38198663680868
C        -3.51072420815982    9.28306081156666    3.13498928444356
C        -3.79616947466759   10.74089872059909    1.10329418649763
C        -6.94382280008767    8.62741397143112    1.10651609060301
C        -5.89714516734376    7.52705502488298    1.26728024710945
C        -6.86960285201627    9.19659095088599   -0.31360440803613
C        -8.32664606926384    8.00153404657721    1.31997243121587
C        -9.06877432447595   13.60699407390383    6.96817017275379
C        -9.62776248826517   12.32376497687800    7.07824054485864
C       -10.77574018719271   12.21944042189975    6.27968648932788
C       -10.91834301327927   13.45410305716825    5.59212192461305
C        -9.84581256003592   14.32220888461643    6.02494917481779
C        -8.04358629563793   14.17462682635093    7.92808241731201
C        -8.82402618683670   14.80181578300896    9.09684335528791
C        -7.16765880534729   15.25205292599928    7.28439946219874
C        -7.12863371233726   13.07259991618645    8.47075116046547
C       -11.81442782543141   11.12589577868675    6.42651826221513
C       -12.65222522803619   11.47294711543818    7.67030827379581
C       -11.16115482356615    9.75627790423439    6.63117169483564
C       -12.74383250080711   11.03870313103757    5.21473818933456
C       -10.88268214114544   14.30577156329054    2.18764237559353
C       -10.33403048353303   15.37011401365708    2.94330005418429
C        -8.93720943719610   15.43657197995453    2.70702505563759
C        -8.61922103139974   14.38686255243379    1.80385475242568
C        -9.81294896051587   13.69758392871430    1.49043302918841
C       -12.33436479297112   14.03779135026337    1.83763907555178
C       -12.59948560003249   14.67428886355704    0.46121211549416
C       -12.56792219612366   12.52300860199546    1.75037908376538
C       -13.32178219894030   14.65111113099233    2.83487456568313
C        -7.97673350863428   16.56073465440764    3.04601705920231
C        -6.67393135012136   15.97203252287796    3.60195178280916
C        -7.67427489809315   17.33886758552051    1.75399783055400
C        -8.56893666802902   17.53737261837221    4.06632877149207
H        -3.90660627469794   12.67885801717362    2.93621101892616
H        -2.52593065065373   11.68842385877469    3.41064620431015
H        -3.99065282293283   11.69393656262789    4.40380618322005
H        -2.43870670508371    9.31434251380992    2.94826045058425
H        -3.90920256835617    8.38051064751813    2.68721943516393
H        -3.66986311567259    9.22974871064455    4.21099508129433
H        -4.36782218096001   11.56783989924168    0.68113783395463
H        -4.00018041007786    9.84387251218398    0.52546610442139
H        -2.73668062039377   10.97170888958145    1.01047789402842
H        -5.84832418712915    7.19724897385398    2.30449639340656
H        -4.91558419627187    7.86452880170911    0.94709203887146
H        -6.17217381526139    6.67159388199622    0.65274258872209
H        -6.94394812525592    8.39101246882007   -1.04135340215083
H        -5.93568275404039    9.72725077434233   -0.47644748709113
H        -7.69128342183494    9.89128863754749   -0.48793477286583
H        -8.39615288807072    7.58643888242786    2.32504100053786
H        -8.50860363599171    7.20961753415436    0.59692794950961
H        -9.10785425922508    8.75636559449842    1.20912903782081
H        -9.27521557498882   11.55862254390050    7.74585869194512
H       -11.83599570890937   13.81754808877782    5.14156204630077
H        -9.86827281704769   15.40348923688780    5.92044364860420
H        -9.44029602727672   15.62701608199097    8.74652352312773
H        -8.13775162347048   15.17714393397511    9.85311859214502
H        -9.47575123544755   14.06158286288915    9.55429858880131
H        -6.53260011882478   14.80707958271004    6.51923358918182
H        -6.52120732205686   15.70033596889142    8.03649651102704
H        -7.76707704737154   16.04630981268780    6.84577918352079
H        -7.67988110462416   12.38266752281750    9.10293036618485
H        -6.32879465904665   13.51013196342307    9.06454537311654
H        -6.68419433969333   12.51180831790348    7.64933339296297
H       -13.41289969345944   10.71357777046568    7.83906318860987
H       -13.14330433363406   12.43539876047702    7.54309926456718
H       -12.01590957339619   11.52988231920787    8.54961918221662
H       -10.51827909208014    9.51232476600159    5.78586145119156
H       -11.92562415168920    8.98649072179245    6.71457832363604
H       -10.56085108375505    9.73761491699430    7.53564962725994
H       -12.17341282631631   10.75901844019683    4.32882218960307
H       -13.25974351125698   11.97932761081184    5.03624822338053
H       -13.49857527065584   10.27296757774516    5.38272042849633
H       -10.90792416818601   16.09863992340003    3.50001406535257
H        -7.68364586205472   14.26684207040921    1.26898829399495
H        -9.91312606097710   12.95756227531973    0.70587857038173
H       -13.61531607846952   14.46103707387950    0.13543455554258
H       -11.90858215328646   14.28623822408978   -0.28270910575937
H       -12.47093371841470   15.75323492450469    0.51364535964068
H       -12.15152961975943   12.02361791111563    2.62894329031967
H       -12.09248921049737   12.10607255728660    0.86551507252018
H       -13.63180638010430   12.30267592176257    1.69353520943520
H       -14.33730527018850   14.53121617445745    2.46248271146758
H       -13.13851201210551   15.71503572141753    2.96504575584268
H       -13.26807293999129   14.16249881643301    3.80476727788258
H        -6.88437336870487   15.36133950337510    4.48571306587184
H        -5.98548422917617   16.76619820285588    3.88497595353854
H        -6.17734733991798   15.34690346559628    2.85870591422995
H        -7.21144172694666   16.69315519065321    1.01254633711938
H        -6.99824625076409   18.16569137259317    1.96081788600148
H        -8.59279573141241   17.73931606191506    1.33072297209941
H        -9.47370903012860   18.00027394265583    3.67881133315155
H        -7.85247041302339   18.32806097978717    4.27929448030345
H        -8.80343418761162   17.03598082284795    5.00333361997132

