73
CSD_code = IYURUP | q = 0 | S = 0 | Stoichiometry = C36H26MoO4P2S4 | MND = 6
Mo        2.10331844266486   -1.59778992875098   -6.15128564369436
S         3.22347703681416    1.74353505911114   -2.46411101909431
S         3.82841559869859   -0.97973413132660   -1.39227179469552
S         4.21005676254011    3.04812710434730    0.33836540065553
S         4.80700349296343    0.35092072619732    1.39836612179971
P         1.90299451631224    0.47500595190792   -5.03000702836864
P         2.53082146785868   -2.30715297549617   -3.93754804540746
O        -0.91106359655571   -2.08084578719165   -5.63695951186083
O         1.45479452943086   -0.38038858755262   -8.91659258482606
O         2.38193689746107   -4.44840681448738   -7.31066997859718
O         5.13367840454718   -1.04002983050817   -6.49126362680915
C         2.76311918573149    0.35897205268606   -3.43573935425938
C         3.03665287945169   -0.86941366098089   -2.95225819163305
C         3.81565919860191    0.76818321324542   -1.11004666693206
C         4.22187841169849    1.31403751872996    0.04876740602397
C         4.77007350658253    2.93763705867229    2.00573428956291
C         5.03978847128175    1.71902709533125    2.48464960630126
C         4.90811228896958    4.20903952740844    2.77501084175127
H         4.67063124344259    5.05768870002191    2.13987334791367
H         5.92618652062232    4.32097427481507    3.14669601131375
H         4.23346239845144    4.21129015216973    3.63088827166442
C         5.52158583105174    1.43056304132076    3.86736105500378
H         5.72259834223446    0.36889410120676    3.97914223970313
H         4.77110566260701    1.72458305365735    4.60094345446206
H         6.43490473178933    1.98650879982501    4.07656029210179
C         0.19573018932415   -1.91301522549898   -5.85132157075570
C         1.70494670650811   -0.84966447537157   -7.90591005324971
C         2.28210941948768   -3.38477264881917   -6.90707594949573
C         4.01778800835718   -1.25008846548066   -6.37320969388226
C         0.22873564502035    0.96103492713343   -4.53625969300792
C        -0.24138447530843    1.01788278640608   -3.23113145293106
H         0.42471766357369    0.83378775761587   -2.39995392303456
C        -1.57122302698850    1.32082265027168   -2.99418345184274
H        -1.93702824605162    1.36276611019806   -1.97844436436125
C        -2.42973790046669    1.56789421292649   -4.05114350071232
H        -3.46702150456604    1.79958846830847   -3.85980352797539
C        -1.96193481118030    1.51579314025949   -5.35601187168719
H        -2.63271283379501    1.70756435251254   -6.18040181700166
C        -0.63844106247848    1.20859748609113   -5.59873713894833
H        -0.25595003825772    1.15153796379008   -6.61275462474034
C         2.53398907799478    2.04832642334816   -5.67493157210972
C         2.22319241387283    3.25427879354470   -5.04887273974143
H         1.58032190381586    3.26005792593575   -4.17846021445084
C         2.73113642291432    4.43757560421037   -5.54871084535486
H         2.49488200148373    5.37156132420141   -5.06041831902043
C         3.53804336279186    4.42746620547190   -6.67648015559458
H         3.93108708865565    5.35545414449554   -7.06483355995737
C         3.83420639130025    3.23231290743933   -7.30992983251237
H         4.45486378098324    3.22582260206420   -8.19370610254179
C         3.33306369763700    2.04237205785292   -6.81157187662390
H         3.55151609594205    1.10420931360007   -7.30652605316081
C         1.10478750864345   -2.93501963680704   -3.01349888955759
C         0.57588343930171   -4.12759620496721   -3.50363740137623
H         1.06890009636645   -4.61717286374567   -4.33728962751458
C        -0.56017698235951   -4.66695377127180   -2.93499473264404
H        -0.96909622684391   -5.59119725950715   -3.31564664340233
C        -1.18055390151368   -4.01328616998744   -1.88040540672118
H        -2.07457873448017   -4.42943919264671   -1.44018267989635
C        -0.65889067696777   -2.82749951631750   -1.39347479318974
H        -1.14328417203888   -2.31994200884735   -0.57189547873881
C         0.48353271636322   -2.28454514287828   -1.95598325011630
H         0.88940671587975   -1.36158128912755   -1.56635305250463
C         3.79447360334478   -3.52474824676262   -3.47947035355350
C         3.86118868483224   -4.03115714682399   -2.18252535206255
H         3.13707487867204   -3.71575570178690   -1.44279734108609
C         4.84685534431822   -4.94020830100542   -1.85081338393685
H         4.90198038723039   -5.32841530138225   -0.84441312323763
C         5.76029683598984   -5.35641298422288   -2.80761735760216
H         6.52843671737792   -6.06835712787636   -2.54388816254467
C         5.68536018259462   -4.86759678403272   -4.10100533891663
H         6.39132162878974   -5.19911547986193   -4.84802310816414
C         4.70345118023918   -3.95268432804868   -4.43919553360408
H         4.63154257843658   -3.57280759895916   -5.45080997702261

