89
CSD_code = IYUWAC | q = 0 | S = 0 | Stoichiometry = C40H36N4NiO8 | MND = 6
Ni        3.11460435558801    2.96528927816843   12.57133790652304
N         3.37777063991480    2.93289222861217   10.79008231853595
N         2.39418462823630    4.37544725641746    6.59247653544464
H         2.31366973166357    4.00582811476523    5.66079608075546
N         2.94488898730854    2.90978793716842   14.36749992256486
N        -0.19133913193001    4.36501521776386   17.30677532765148
H        -0.78695381703215    5.16248078634088   17.44801314376842
O         4.97977283615941    3.81929465574941   12.65848908768411
O         6.68399185734576    4.19727194763903   11.28092448260655
O         0.87680154747999    2.95926498148979   12.13630395993839
O        -1.43174068268447    1.72211701283549   12.47767533235475
O         2.94291221869385    0.90165823086224   12.67526815671298
O         2.81295711226744   -0.66968203879437   14.24242671611400
O         2.25868651373939    5.12806663231104   12.69814595288704
O         2.76176754172480    7.64901429389189   12.16078148362320
C         5.53821130634892    3.88213535709507   11.52723151612345
C         4.56629097418774    3.59424490618479   10.31642342576247
H         5.06866845822711    3.00652172057391    9.53734753547315
C         4.20415103318985    4.98776708825039    9.75491214034484
H         3.73345010115289    5.56846241636016   10.55022880497455
H         5.14707360117230    5.46888629735283    9.48300384941509
C         3.49763664446117    4.26633780200594    7.39645996932142
H         4.36862153719620    3.73875246664378    7.05598332065054
C         3.28479484204709    4.90739926620754    8.58443463078340
C         1.96897726058129    5.46034732831546    8.50857639408947
C         1.44170188789490    5.10298830292154    7.24350291063988
C         0.16776742552525    5.48931844600083    6.84644508607874
H        -0.22372983639062    5.21083121379448    5.87902226332437
C        -0.57227200511303    6.24800176649978    7.72751649325769
H        -1.56570514977500    6.56826832881274    7.45026014970278
C        -0.05748280367612    6.62466789446928    8.97167528622676
H        -0.66725685080177    7.23251689846064    9.62512573533001
C         1.20431504295291    6.24420776050785    9.37274652706316
H         1.60546020385453    6.55460729001511   10.32483083272126
C         2.69871871011272    2.22121397364749    9.97413052018880
H         3.08753731791149    2.06289232279640    8.96564771681532
C         1.42355012894674    1.56991724916860   10.22825559885212
C         0.54804127367132    1.95133087218979   11.25103434413906
C        -0.66509603992044    1.27209393259549   11.44369875899267
C        -0.99813120662576    0.21304277641565   10.60937508164869
H        -1.91425262955197   -0.33579402909540   10.75536757993432
C        -0.13892996627884   -0.15474765418809    9.58606885566775
H        -0.40565582750870   -0.98142220278211    8.94576080737079
C         1.04781132825766    0.51497666242345    9.38931499601093
H         1.71700587230754    0.20689658560750    8.60091496974183
C        -2.54427865409990    0.95052460510310   12.86923760855035
H        -3.32381309244976    0.95106111101951   12.10074952693140
H        -2.92780923735644    1.42556459135309   13.77094378006083
H        -2.25337519887301   -0.07780838495403   13.09885391361646
C         2.83458604672387    0.48320773283327   13.86102309087413
C         2.62627786555341    1.62237887491607   14.93367028394003
H         3.23222821120180    1.42904033620883   15.82683477098859
C         1.12712462394873    1.55956732566764   15.30791947488194
H         0.53257718439504    1.71176380759991   14.40421975138752
H         0.94715874796961    0.54773323880989   15.67967090387196
C        -0.13056134337705    3.60423036710940   16.16843368965089
H        -0.75292144464405    3.83204003225496   15.32332226374435
C         0.75062678767149    2.57464554956588   16.32949495218953
C         1.26631810151665    2.69331509442344   17.66106568671474
C         0.65475330236860    3.83278978793409   18.23743120114654
C         0.94123936802959    4.24383127125692   19.53284149412654
H         0.46718932957733    5.11637026662207   19.95834323215121
C         1.84537772475212    3.49435384077570   20.25389236970384
H         2.09165426645416    3.78404645912020   21.26456279864678
C         2.44519719883779    2.35700419603899   19.70586643891113
H         3.13879666499984    1.79059273806108   20.30929653777568
C         2.16626101606966    1.94543035741774   18.42207452755427
H         2.62306230398135    1.05503499631503   18.01743237535951
C         3.23852421506154    3.86705058256012   15.16166582418105
H         3.33082608637549    3.66001673311666   16.23061170511030
C         3.48741091956469    5.25337460728357   14.79671615601244
C         3.00537708935972    5.84202509611226   13.62303438024326
C         3.29300699175490    7.18239119845303   13.32457000249619
C         4.07400070702985    7.92682099221954   14.20008496361502
H         4.32786824265421    8.95030637012385   13.97656256995332
C         4.53586739606243    7.34910019210145   15.37181970766459
H         5.13878794899655    7.93657447893153   16.04697629288286
C         4.23940271853034    6.03877796952307   15.67638680755108
H         4.61467028050351    5.59522884862499   16.58554403580520
C         3.17769229943678    8.91060454630243   11.68965032100847
H         2.83618234585913    9.71656564246313   12.34688036882399
H         2.71559334656124    9.02409782088819   10.70992460723221
H         4.26488414568924    8.95642586069580   11.58511652811474
C         0.20897680498726    4.19733714029952   11.94008930874626
H        -0.85973019908622    4.09583131934561   12.16632077294890
H         0.33644645289974    4.53326265942522   10.90244444472801
C         0.85354821250975    5.20103072595426   12.89433065094609
H         0.49031650272658    6.21362706740321   12.67403449945419
H         0.61293074643451    4.94102237824338   13.93306287189155

