81
CSD_code = IYUWEG | q = 0 | S = 0 | Stoichiometry = C36H34N2NiO8 | MND = 6
Ni       10.90112300304884    4.98530688612873   19.33189956356877
N        11.90614222665155    4.91667801924329   20.83015928946278
N         9.89422337671902    4.89252991493463   17.83520011699329
O         9.54545914748513    3.82827944934959   20.40937384838141
O         9.61007071181086    2.63064526108346   22.28872838947377
O        12.24070322196341    3.78385635763833   18.28316293529905
O        12.15759361634505    2.53790965375372   16.43626633706349
O         9.72085482385211    6.87066199735686   19.86584702828922
O        12.10735203626558    6.83964673528021   18.74995841445482
O         8.15299749529755    8.08235288920203   21.60285450168290
O        13.69251166446903    7.98595200698084   16.98410926673434
C        10.01890305348673    3.47367912323453   21.52145036158341
C        11.26096265906336    4.35452848280755   21.98245287363155
H        11.96338287615886    3.76541383045298   22.58608799689618
C        10.62695691060966    5.46487766134813   22.84658397465595
H         9.82866632047361    5.93915223683793   22.27268871527659
H        10.18651899925248    4.97386872443587   23.71776670634296
C        11.63117533193378    6.49831262095306   23.26424155907581
C        11.48362573602443    7.81871780881830   22.85823758963827
H        10.61124617957188    8.09592988606052   22.28473759340716
C        12.42766087769108    8.77294787985594   23.19805578411613
H        12.29952786825336    9.79715808313505   22.87603767814892
C        13.53388612944048    8.41837288156382   23.95066765356545
H        14.27331143635708    9.16044994396884   24.21315062619924
C        13.68069415832758    7.10869607465492   24.37662877675797
H        14.53347575833349    6.82970460923729   24.97821458065999
C        12.73579778864443    6.15736530466926   24.03730533834311
H        12.84994069162723    5.14055768453452   24.38546771721918
C        11.76126154571407    3.40662471030178   17.18113377673319
C        10.53090180880772    4.29189026889301   16.69776949031957
H         9.82017127834531    3.69667146147321   16.11004066354341
C        11.17896814994559    5.37070988477203   15.80453232864591
H        11.60981473101286    4.85156937811422   14.94494745228150
H        11.98566669370997    5.84747225424763   16.36446589981059
C        10.18871406972842    6.40797717041442   15.36366141583146
C         9.07632848432779    6.06395504643869   14.60318413965681
H         8.94609581507546    5.04053812621927   14.28100512320952
C         8.14391936695441    7.02014499561609   14.24356816202897
H         7.28461071740822    6.73860095871203   13.65253644648232
C         8.31125330967956    8.33776693860150   14.63614896766679
H         7.58133814569614    9.08362181524470   14.35820511039677
C         9.42555535370279    8.69495750984580   15.37548399961164
H         9.56979417793011    9.72494607580739   15.67117869066200
C        10.35702426947347    7.73587974971625   15.73573561789557
H        11.23564513636374    8.01460399430425   16.29889381155438
C        10.15874550876507    8.08640126593744   19.27275161227111
H         9.77535339558634    8.94540298199133   19.83776330945374
H         9.80703936845899    8.14120360276109   18.23426700687472
C        11.68591965720117    8.07667398702247   19.31000794948746
H        12.08063910236627    8.91495625126021   18.72215081108467
H        12.03856073873465    8.15470628006646   20.34669557557483
C         8.63195978346778    5.09598733873028   17.80836455925973
H         8.06195120043892    4.75449599189498   16.94108745309401
C         7.82967743394642    5.75986618688410   18.82189801252972
C         8.35952144130084    6.63052093771375   19.78036560998786
C         7.52485152904691    7.25412764136058   20.72079229924599
C         6.16028153168593    6.99534787847974   20.70440034672830
H         5.50535311201186    7.44800361335760   21.43094278339550
C         5.63352742129279    6.13989072359030   19.74962877994935
H         4.57241520511302    5.94413479962454   19.74612547425669
C         6.44785722001571    5.53898873115396   18.81592380929164
H         6.02705080185589    4.86636239852269   18.08503834091338
C         7.41275063049909    8.59354082279369   22.68807068991158
H         6.96222479442521    7.78956747827228   23.27608864624189
H         6.63414584794653    9.28513346746606   22.35167140168085
H         8.13086875910518    9.13137317543185   23.30533543149546
C        13.17104683958405    5.10377209396708   20.85279820798665
H        13.73585352425106    4.77732560431612   21.72922781007749
C        13.98277696484716    5.73030257264096   19.82315849141890
C        13.46525428328016    6.58339197968251   18.84240270803494
C        14.30882196573035    7.17160742282139   17.88721557298909
C        15.66970009021646    6.89463818741777   17.91121468875759
H        16.33106941748079    7.31949054090544   17.17380262974977
C        16.18432067909601    6.05666438709670   18.88786689745845
H        17.24267554200053    5.84668658962578   18.89721947334402
C        15.36147381444457    5.49092139310734   19.83594517477324
H        15.77275157367605    4.83159419725315   20.58416869132703
C        14.44086681679430    8.46166231579130   15.88838668802074
H        14.87921584901732    7.63808266702067   15.31855799419120
H        15.22987384657167    9.14850827494292   16.20989890169680
H        13.73127715671252    8.99668387285359   15.25893985419396

