45
CSD_code = IYUWEE | q = 0 | S = 0 | Stoichiometry = C16H14F6N2NiO6 | MND = 6
Ni        2.87600107144376    2.77824546728469    6.65238658629552
C         3.99351129591838    3.30683448840003    9.11892913363294
O         3.37113200023551    0.42958153528228    6.35027701282675
H         3.84090728660011    4.31825214626162    8.75962078224736
N         3.62025826149070    2.32601265812988    8.29932688999465
O         1.10950072365864    2.23573581839820    7.32111710945573
O        -0.10175395912590    4.11892982457495    7.31547585069559
C         4.54872996923749    3.05376054539541   10.35956727517543
H         4.84276839782998    3.87214588822995   10.99609557784803
C         4.71896531741630    1.73539577192980   10.75756223856337
H         5.15183584670243    1.50151579239920   11.71818729219700
C         4.33261082929635    0.72470720485548    9.89688704267207
H         4.45510731898413   -0.31277845526178   10.16498309870189
C         3.78284058682847    1.05281416285034    8.66271366298037
C         3.34204817630184   -0.01176902946219    7.68499892578799
H         2.29629595146889   -0.26365169191660    7.90294039377205
H         3.95955876538049   -0.91045859657326    7.81292586180771
C         0.07171473403738    2.91717678090698    7.44735596299049
H         4.31772599762664    0.59351136144203    6.11323169187558
C        -1.18236975852121    2.03768867814215    7.80574724465658
F        -1.80546426839872    1.62513782576441    6.68683178736635
F        -2.08534298064009    2.69275581628494    8.53981848410110
F        -0.84335175251921    0.93375260391607    8.48844498053143
O         2.38097850810954    5.12696434743959    6.95449910310353
C         2.41007686473093    5.56817798465413    5.61971876762547
C         1.96865603845501    4.50363329851106    4.64225495597337
N         2.13151649654276    3.23044241741417    5.00554185374684
O         4.64253846237071    3.32085006330105    5.98389048136222
C         5.68032470360300    2.63945747591492    5.85756268903543
O         5.85377503874248    1.43761919332625    5.98889662863223
C         6.93412645129833    3.51904461177139    5.49845925082224
F         7.55727438092058    3.93213025791775    6.61704334496189
F         7.83710508270400    2.86388621574114    4.76463338708459
F         6.59498451927216    4.62263266033341    4.81536615252769
C         1.75774124614278    2.24959554443051    4.18622266728038
H         1.91065500825557    1.23819207235914    4.54543881954498
C         1.20159612189780    2.50263292901732    2.94599299838423
H         0.90708530650788    1.68422583843328    2.30971281090865
C         1.03100464680904    3.82098504453914    2.54811724911533
H         0.59734720166354    4.05483648344861    1.58783963193455
C         1.41798719862681    4.83170472749662    3.40848056638002
H         1.29525121674764    5.86918060184857    3.14046020795875
H         3.45591598843738    5.81954262293937    5.40160632796298
H         1.79295667557795    6.46713206431825    5.49178039056661
H         1.43437303132875    4.96313694760829    7.19155682891052

