83
CSD_code = IZACAO | q = 0 | S = 0 | Stoichiometry = C34H42Cl2N2O2Pd | MND = 4
Pd       17.59649671647781    6.77898339708935    7.52049222217951
C        21.39068131888627    6.25195506179483    7.53252640093759
C        22.49596342536432    6.91203752565512    7.01365292595893
H        23.37962040985426    7.02058988780098    7.62280888782848
C        22.48418788693034    7.44043945777993    5.73774177018162
H        23.35299609134285    7.95818166603989    5.35936116487860
C        21.35806202830863    7.31003051122380    4.94733729202236
H        21.35540679816837    7.72865659105551    3.95314465755614
C        20.23235326305207    6.64843871639230    5.41535137370805
C        20.25364640366057    6.12921680988980    6.71872785040376
C        19.34924023858723    6.01911503840742    3.13344537449718
H        19.94385436856520    5.10894480029735    3.17936286859272
H        19.90502583819363    6.76878548861031    2.57583555715719
H        18.43363824404027    5.80231815228289    2.58837350735243
C        19.00321198779157    6.50518065903965    4.54142535589073
H        18.32849350280423    5.76026662945893    4.98295104051585
C        18.25736816071381    7.84638721946287    4.49062259431057
H        18.03354216027626    8.18636333434242    5.51616428697811
H        17.32298993058306    7.73238307614589    3.94344327737820
H        18.86527471027847    8.60579263870448    4.00225658720949
C        22.46415992901626    4.57215439772681    9.04488647533963
H        22.23626004384107    3.77317601609073    8.34245455068851
H        22.46004732081843    4.15914798824798   10.05122207792889
H        23.46467458502187    4.93972141343897    8.83001630372732
C        21.43990637893203    5.70618193457611    8.94215699042107
H        20.45439323483483    5.30623428515905    9.20577622100189
C        21.76880786290837    6.81065588949999    9.94955512933243
H        21.05701889209480    7.62537449555710    9.84952609917187
H        22.77012471836320    7.20279951973106    9.79285374361796
H        21.71006057828929    6.41605838810315   10.96186401037235
C        18.99329885165534    4.24514642081485    7.35025668541462
H        18.10917349888960    3.82726856065388    7.82518501311546
C        19.91108607316060    3.26407346639985    6.85127402960407
C        21.02091772848279    3.30612725194077    6.02722559603794
H        21.47600519383785    4.17723494200385    5.60372154475265
C        21.42980508709257    1.97200166458132    5.84806763646103
H        22.25864982859281    1.62582347147756    5.26589650043290
C        20.55480300305664    1.20919080329708    6.56884019069389
H        20.49036927532025    0.14940511560613    6.71986062041754
N        19.08739081060875    5.52140358419517    7.23934090639093
O        19.64217632872813    1.97129492382616    7.16966826155888
Cl       18.98449640043162    8.32104390913653    8.52222358937715
C        13.80224951629084    7.30595620791075    7.50855729000254
C        12.69698030999194    6.64586449172164    8.02744206921348
H        11.81330936448963    6.53733056410287    7.41830467965817
C        12.70878419469973    6.11743387150078    9.30333991589391
H        11.83998177798687    5.59969148337399    9.68173146224893
C        13.83493063140579    6.24781887268353   10.09371902945836
H        13.83760211104910    5.82917224913205   11.08790310530068
C        14.96063316425386    6.90941296015845    9.62569093398061
C        14.93931080777680    7.42866188035913    8.32232184789449
C        15.84375926021658    7.53872492403635   11.90760071026601
H        15.24918789793209    8.44892410043872   11.86169166705610
H        15.28792977929660    6.78907120418652   12.46518911813412
H        16.75936319167780    7.75546747485690   12.45269178849594
C        16.18977951971900    7.05266700047724   10.49961459921597
H        16.86449531297560    7.79758424962322   10.05808979607711
C        16.93562645233225    5.71146062203886   10.55041716842573
H        17.15943692633157    5.37146456243885    9.52487895266890
H        17.87001397197906    5.82547384145460   11.09758070001072
H        16.32773146155012    4.95205609615007   11.03879830350804
C        12.72867985682604    8.98578359973217    5.99630755943817
H        12.95655872293213    9.78472953218140    6.69878418301828
H        12.73275889075927    9.39885006113010    4.98999674209712
H        11.72818347349000    8.61816494013673    6.21117291931674
C        13.75297864915544    7.85178869756941    6.09895299724521
H        14.73847208018467    8.25178382882411    5.83532955246626
C        13.42408915603859    6.74734192217223    5.09152263670943
H        14.13590243966001    5.93263958539276    5.19150621935054
H        12.42278629661313    6.35516543307327    5.24822980478343
H        13.48280521006117    7.14198223382723    4.07922943431603
C        16.19962310727841    9.31274006608694    7.69073594722146
H        17.08374651825163    9.73061894413480    7.21580560227647
C        15.28187351422292   10.29382035276977    8.18977413757245
C        14.17208965528481   10.25177911146835    9.01388938839321
H        13.71700985740035    9.38067619389910    9.43741058254887
C        13.76321508207005   11.58590978254660    9.19305260946783
H        12.93439734430984   11.93209701510290    9.77525695637333
C        14.63819766121486   12.34871098302590    8.47224681391944
H        14.70263507491880   13.40849658648020    8.32122255083561
N        16.10554154536586    8.03648460449044    7.80166514664947
O        15.55079059607053   11.58659571631557    7.87138065373023
Cl       16.20848050807910    5.23691904945931    6.51886725336603

