83
CSD_code = IZACES | q = 0 | S = 0 | Stoichiometry = C34H42Cl2N2PdS2 | MND = 4
C         2.17010392794937    7.63049273621530    5.78747960705805
H         2.58895867028133    6.84340136562454    6.41086498904777
C         3.14298269956362    8.45230547869106    5.14300777107546
C         4.50283375488131    8.22054108708377    5.17001646148595
H         4.93544726646443    7.35798387933838    5.64395107323895
C         5.24709362673106    9.21551833662747    4.52347248448886
H         6.31869832408128    9.20398547629748    4.43916601071273
C         4.45885260187756   10.20587092725841    4.01575380433645
H         4.76586851092321   11.08412530310792    3.48278188980836
C         0.27272727458481    8.68685428241727    4.89660747934325
C        -0.20692351871843    9.89787266667166    5.41885158093502
C        -0.86055474074177   10.77226813207718    4.56393878177888
H        -1.24984329767540   11.70174269362871    4.94854093089603
C        -1.01759357332922   10.47076480112067    3.22484928289041
H        -1.52322236143356   11.16559369273007    2.57090123594978
C        -0.53703169051959    9.27684733965507    2.72360640224357
H        -0.67193819611285    9.04930354869641    1.67783171848273
C         0.10563083601261    8.35904304148608    3.54121243985392
C        -0.03366964845049   10.23290537855839    6.88552578477593
H         0.71808362884102    9.56428910067082    7.32540595727843
C         0.58628520737402    7.04302537848580    2.96996740708321
H         0.91492674703561    6.39719618712586    3.79288319370911
C        -1.36120131339397    9.99574162697835    7.61989998465027
H        -1.23183318741738   10.16597782599549    8.68743025500305
H        -1.69528508507870    8.95553597584899    7.46074005968850
H        -2.13219297136149   10.66548581490481    7.24326630721221
C         0.45685532654488   11.66575257387377    7.09566914426079
H         1.33562480665444   11.86025772339557    6.48437857246027
H         0.72421903999852   11.81044310140827    8.13979357674757
H        -0.31051645595602   12.39190086315215    6.83958307375820
C        -0.54539771354604    6.31137097902485    2.24433816568451
H        -1.39742130806729    6.19946911430304    2.90904202034798
H        -0.20829164510347    5.32250611922523    1.94017691724726
H        -0.86217903537247    6.85153516139176    1.35634154793429
C         1.76839151865000    7.26014157736793    2.02107879040457
H         1.48793440850240    7.92758421360543    1.20972610019397
H         2.07911778486572    6.30942151569748    1.59325368852133
H         2.61947590619532    7.69343521031421    2.54150123728771
Cl        1.24142139395598    7.29336037847947    8.68288692830388
N         0.89015569249804    7.75140658725098    5.75840902425027
Pd       -0.34358439527014    6.92246397632543    7.05110796661441
S         2.79248209689480    9.94131036547106    4.30541793926245
C        -2.85727850135216    6.21450096694019    8.31474561375017
H        -3.27611028897232    7.00157982245163    7.69132854684036
C        -3.83018933645177    5.39274341092639    8.95924120755598
C        -5.19003202498998    5.62456142127927    8.93219311966501
H        -5.62259318577734    6.48712727902589    8.45822722098260
C        -5.93434259539518    4.62965349560739    9.57877956891839
H        -7.00594951505447    4.64123394167157    9.66305907111374
C        -5.14615645782755    3.63927550845704   10.08653287527721
H        -5.45322044171585    2.76104647166305   10.61951956057782
C        -0.95997241072712    5.15808953477065    9.20566014489869
C        -0.48032701436396    3.94704235995117    8.68348113469062
C         0.17317991322000    3.07263106339122    9.53847675568443
H         0.56244981068193    2.14312193076825    9.15393861803596
C         0.33011645809691    3.37416676669724   10.87757004477414
H         0.83565241890156    2.67932818883793   11.53158107076968
C        -0.15040991101974    4.56813121506135   11.37873972288952
H        -0.01555685490253    4.79570567857557   12.42451500781996
C        -0.79296753390231    5.48594169985395   10.56105814089670
C        -0.65346229577522    3.61199813061661    7.21679495817837
H        -1.40516179231315    4.28063046931281    6.77684741521304
C        -1.27359210219881    6.80200944476654   11.13221587683488
H        -1.60216017621275    7.44781679377601   10.30925317404983
C         0.67414773346667    3.84914841100336    6.48254950666366
H         0.54488577356157    3.67891661412544    5.41500300942426
H         1.00823994118330    4.88934819432147    6.64173888640728
H         1.44510188009867    3.17940316993817    6.85925706354274
C        -1.14399553916342    2.17916196774718    7.00660392663091
H        -2.02284399574377    1.98468918551382    7.61778804333994
H        -1.41123859564650    2.03447650324464    5.96244953037784
H        -0.37667801503449    1.45299356227875    7.26278364709515
C        -0.14190994247041    7.53363951508147   11.85786954729316
H         0.71015605509628    7.64546376169102   11.19320406167466
H        -0.47898267915605    8.52253692676573   12.16196177539232
H         0.17479345067759    6.99350525945344   12.74591359681194
C        -2.45575974594832    6.58500398924541   12.08105486124964
H        -2.17538622014456    5.91758527783529   12.89245551013160
H        -2.76645225677058    7.53576325035231   12.50881615256329
H        -3.30684344401839    6.15173847541175   11.56061030190407
Cl       -1.92863817445043    6.55147625530510    5.41943293393133
N        -1.57733532912752    6.09352960442692    8.34380537582315
S        -3.47976797217029    3.90375294425546    9.79688583403463

