46
CSD_code = IZAHAS | q = 0 | S = 0 | Stoichiometry = C21H17N3NiO2S2 | MND = 4
Ni        1.25665133109331    9.79320665387618    0.60735592339777
N         0.08426511302459    9.64326972559216   -0.88509349951528
N         2.19326003294290   10.86238246159808   -0.49922639659340
N         2.66340008144329   10.17395370002973    1.81528559761184
O        -0.15172868938027   10.41031359889090   -3.06742928802530
O         4.62591046278724   11.36641558873428    1.96469096595423
S        -0.05793258629587    8.46239618854769    1.75903905215244
S         4.50192862498876    7.93826002239217    1.78701220372680
C        -1.25156958587801    8.19578197214471    0.43569656675803
C        -2.34135344116468    7.37815695754031    0.66073162782618
H        -2.46907668881812    6.91313547996803    1.62683587986136
C        -3.25321787655674    7.16893800777522   -0.35883416774565
H        -4.10617385414703    6.52797464571574   -0.19865572083154
C        -3.06283874010875    7.79452118883078   -1.58248159427339
H        -3.77460604888686    7.63602500019630   -2.37902847655673
C        -1.98107802871863    8.62241919610218   -1.80652169359539
H        -1.84667436891979    9.10616484605494   -2.75940852519116
C        -1.04371226169437    8.84467971332114   -0.79032563412172
C         0.42923747414808   10.34582318794900   -1.99853019971058
C         1.72122938451520   11.08436443716848   -1.72467240945701
C         2.40627595425731   11.91688741497708   -2.59903237258812
H         2.00665276268296   12.08403944164293   -3.58676670194804
C         3.58690681468941   12.50499556849519   -2.16455864880360
H         4.13998707308394   13.15573175264838   -2.82549305377040
C         4.05662488867330   12.25687091537919   -0.88122182106529
H         4.96838538370580   12.69256810533521   -0.50484987483292
C         3.31885176169237   11.41607540380005   -0.06050820923849
C         3.63864522158040   10.99502268307424    1.35754751557587
C         2.83967031660181    9.60970499688276    3.09482984178874
C         2.13972343029445   10.09830167236020    4.19009873839405
H         1.45418364213702   10.91956071789070    4.03911198150394
C         2.32232637841538    9.54096310081674    5.44248675528426
H         1.77934788500044    9.92854421792516    6.29077535967951
C         3.21072417556745    8.49194648127662    5.60428518632846
H         3.36375173944360    8.05573945245064    6.58021664249253
C         3.90892480757063    7.98527950370972    4.52085706789005
H         4.58932342214088    7.16260006438524    4.67265403009192
C         3.72708524935994    8.53345862134512    3.26098507759057
C         5.61966335393679    6.64207827022954    2.39388898011042
H         6.32843509688784    7.06846109999268    3.09731121561568
H         6.14633883854750    6.27898978832457    1.51677289213622
H         5.05399374738857    5.83099228592524    2.84376726149805
C         0.93522366817421    6.93944892353103    1.55410245028168
H         0.27259627947153    6.08469795679165    1.65434299359852
H         1.67606348015450    6.93978801837097    2.34719431574287
H         1.42267429416765    6.93517097001112    0.58176216497183

