43
CSD_code = IZARIK | q = 0 | S = 0 | Stoichiometry = C8H12N22Ni | MND = 6
Ni        2.39462471661954    2.39460840062874    7.28483094758589
N         5.63702426170103    1.19118300330022    9.38881612247185
N         6.25761678394788    0.96185029251220    8.24775518101982
N         5.53821472566604    1.23057795546607    7.19493763533454
N         4.39888799354786    1.65385636623207    7.61796410470067
C         4.45159282330553    1.63214915998187    8.98819168101809
C         7.59382068631387    0.46310759553752    8.17433743179709
H         7.64965115987009   -0.51445139561032    8.65413462546742
H         8.27031313851222    1.14584747127645    8.68868475907592
H         7.86260485246024    0.38363360173570    7.12350021445198
N         3.42251302786379    2.01342978282693    9.76623203101776
N         2.39452889592403    2.39444872365408    9.11589342210221
N         1.65376245022008    0.39038927151101    6.95167894050469
N         1.22957963545292   -0.74864727641273    7.37460205025742
N         0.96117339480444   -1.46810961029232    6.32174035920348
N         1.19121013123431   -0.84768319675988    5.18075200826822
C         1.63211332825309    0.33772883890962    5.58145699170089
N         2.01396488869763    1.36655760263384    4.80341629604162
N         2.39485734225891    2.39457261144906    5.45376670412433
N         3.13534726866302    4.39908532424701    6.95162077675184
N         3.55915074400233    5.53829378587453    7.37445738358306
N         3.82803717096642    6.25750263422827    6.32153440640565
N         3.59856914251138    5.63678095638860    5.18059207103526
C         3.15748022810088    4.45146890501017    5.58139432010261
N         2.77603721133297    3.42244839387685    4.80338964467343
C         4.32698277129542    7.59366957665095    6.39467567545263
H         5.30329517708521    7.64969371290916    5.91243741451985
H         3.64302882294031    8.27063895895155    5.88253062112229
H         4.40902938659021    7.86172027624730    7.44548550218741
N         0.39028062952780    3.13560209706564    7.61802118326895
N        -0.74894283935356    3.55927707542451    7.19510008012335
N        -1.46849391066048    3.82740982554612    8.24797440068101
N        -0.84805730484919    3.59735652725380    9.38897184197999
C         0.33744795509533    3.15668775252934    8.98824782458011
N         1.36640189380932    2.77500032534532    9.76625172131671
C        -2.80468199450661    4.32620894191931    8.17467906831333
H        -2.86079236966812    5.30281908143256    8.65642895851469
H        -3.48150313086918    3.64238207794924    8.68723657229721
H        -3.07279902477953    4.40772932779723    7.12378464741657
C         0.46227999904544   -2.80428329891275    6.39505347543225
H        -0.51305842669815   -2.86081276174872    5.91088030210745
H         1.14738065399211   -3.48163667883497    5.88488615196893
H         0.37822570977333   -3.07139201573088    7.44597445002063

