60
CSD_code = IZAYAK | q = 0 | S = 0 | Stoichiometry = C23H28Cl2O4P2Pt | MND = 4
Pt        9.49738761511251    2.54063079845415    4.54956717192017
Cl       11.15250021574931    2.77254102154957    3.00286461034856
Cl       11.00744568068549    1.91984179943431    6.15452339423139
P         8.00359466963203    3.07676701249067    2.93281159603614
P         7.69522674745140    2.47705611279050    5.92348094584936
C         7.14883123461779    1.12029460941594    7.09600270385673
C         8.16418405725039    2.19122588957191    8.99226528531875
C         5.92726784038244    2.71713502908152    8.55231294296753
C         5.77830240355563    1.45199049393565    7.68502765426542
H         5.03377193068043    1.60694092530659    6.90511344753070
H         5.46101657620294    0.63243111979203    8.33338854634959
C         8.63697931402356    3.45688534271084    8.26651081890217
H         8.73816456883970    4.26246702327375    8.99547074538200
H         9.59878727568503    3.26129751025954    7.78392813061409
C         7.59406860872068    3.81960739652922    7.21490214849992
C         7.20551608633887   -0.22336904460400    6.37975189033039
H         8.22318403283618   -0.37503552898437    6.02121631310501
H         6.51485251318046   -0.24042242455106    5.53856338017688
H         6.95859127842219   -1.02627489831645    7.07020010359182
C         9.10283223744825    1.80317393245709   10.12629988060858
H         9.15949618362635    2.61017894114809   10.84874950152355
H        10.08268644000125    1.59929893564142    9.70741224723945
H         8.72244581957106    0.90931062088833   10.61046865585173
C         4.62297768624018    3.08235165739505    9.25379133127625
H         4.31937061383214    2.26669689032888    9.90118830557146
H         3.85495886162051    3.28189701234514    8.51356463277165
H         4.78754546475278    3.97234844130525    9.85280116744119
C         7.87096357855989    5.16916651293216    6.56527394228492
H         7.08497727204792    5.41210354229860    5.85300608235647
H         8.82851524063755    5.11630084982891    6.04187820674387
H         7.91314331683403    5.95199252231733    7.31896329796546
O         8.12266181198956    1.07892353958380    8.12034227258217
O         6.88577823301936    2.45601392840622    9.54643059098944
O         6.27652196195756    3.83576661441790    7.75323341392217
C         6.20848105119729    2.82191720618965    4.83315630476955
H         5.70782838354021    1.86990232704154    4.60383038391618
H         5.50659236603100    3.48518567741557    5.35329650590724
O         6.58080921600317    3.46218479296602    3.63385321694486
C         8.11188775606002    4.40329944985442    1.72060077971905
C         7.41284767688447    5.59590548060923    1.85838627459689
H         6.74494376477479    5.73152838425464    2.69536642843930
C         7.57351356569698    6.59331714237064    0.91308872382238
H         7.02647254664638    7.51944220329052    1.01157463312777
C         8.43905401590726    6.40956685678327   -0.15306392854648
H         8.56434482010755    7.19344579740389   -0.88518313275399
C         9.15108274512708    5.22630311338062   -0.27823351125116
H         9.83332811616906    5.08991108033847   -1.10364660836337
C         8.99209704871188    4.22204681376342    0.65751896827192
H         9.55290170515339    3.30093287557055    0.58590010714731
C         7.62033376588188    1.59331221085160    1.94986732416130
C         6.68019141240337    1.62909796898884    0.92655081907416
H         6.18767061421805    2.56204562177765    0.68873706813816
C         6.39044998351410    0.47287393267382    0.22543137757070
H         5.66344416793790    0.49457925257367   -0.57299956054285
C         7.03703779557623   -0.71248677958031    0.54237681158379
H         6.81154445441006   -1.61102619076060   -0.01257410414408
C         7.97284438234797   -0.74872497386811    1.56390427557835
H         8.47639772946681   -1.67258096551958    1.80536904699911
C         8.26364285034212    0.40462069616299    2.27039894555405
H         9.00711069438836    0.40306589601361    3.06678749188114

