94
CSD_code = IZEGAW | q = 0 | S = 0 | Stoichiometry = C48H39CuN2O2P2 | MND = 4
Cu        7.24403249090652    3.47336133117978   15.03696555963500
P         5.37964402038964    2.29147928498654   15.23993450735591
P         7.17271633742538    5.48239060048873   16.11945311227444
O         8.90441861122431    3.04379996935203   16.19282090066690
O         6.01926587408850    3.55567643802845   12.47872159356354
N         8.59071791955516    3.30942566088208   13.61476619835943
N         9.84311290498868    3.25619503504494   14.10373663410108
C         5.18792111670642    0.66976344272384   14.43079654922134
C         6.49862212083625    5.39628103858548   17.80421183470480
C         3.80001341427302    3.12923468500811   14.92027632264434
C         8.86551293449762    6.10302659953390   16.35730065306914
C         5.20985895379630    1.78847309736048   16.98489149655231
C         9.89747870329131    3.20977835665132   15.42839851564336
C         2.84199009537322    2.69077340025717   14.01338659900973
H         2.98278439548878    1.75851987969970   13.48455367886255
C         7.13514838147033    3.33874582741367   11.73330826830647
C         9.58270420720131    6.33520307215185   15.18490977784670
H         9.08756012057357    6.20630098492653   14.22982813115334
C         6.11800093215880    0.30661292920244   13.46433823213959
H         6.92018148539460    0.99116595361272   13.22424348065829
C         4.06589526482523    1.94319165017731   17.75714137717442
H         3.17850521287584    2.39429069804726   17.33509453223659
C         6.99678037620294    4.36049100264063   18.59495687059641
H         7.77662945287263    3.72900424235565   18.19024331715596
C         3.61857632800745    4.34780320747157   15.57321718650420
H         4.38030248176493    4.68782134987903   16.26520801327152
C         8.41935402849667    3.20910266420468   12.33777629501314
H         9.26374161692271    3.03293996202471   11.67488801839814
C         5.45677902487047    4.94351706770601   20.33463486948742
H         5.05073096222574    4.77145164317773   21.32070860314538
C         6.01767592713125   -0.91955630811753   12.83071994126963
H         6.73996817216828   -1.19873313223912   12.07770517586691
C         6.35103816919213    1.21954770206443   17.54589921874024
H         7.24731372035600    1.14035850773343   16.94374650093727
C         1.70832618303619    3.45357398821608   13.78599940845860
H         0.96371482659433    3.10744850780457   13.08337333662853
C         6.37580142921440    6.95454768940473   15.39372787704261
C        11.24615797592136    3.37468066062746   16.00998784435369
C         5.45561016097312    6.18455318714195   18.27759568194806
H         5.04746916756099    6.97346989061382   17.66050927452772
C        10.82638004374994    6.61847940228686   17.63787678468450
H        11.31528429455733    6.72375703725403   18.59570690263832
C        11.39963041171240    3.35425239096144   17.39253940300453
H        10.53073176681745    3.17688219790553   18.00930906668118
C         9.49503337948590    6.24385351121840   17.58693819857809
H         8.95018304079307    6.05570986698015   18.50155964760613
C         6.48704039265048    4.14620295015470   19.85997474842155
H         6.88229090590282    3.35076293541795   20.47441385946264
C         5.54893205257233    6.75553691562072   14.29409867103248
H         5.41548933271151    5.74996007845978   13.91567568310459
C         4.94084299587978    5.95483771791342   19.54165507126155
H         4.13135731263757    6.56948649504278   19.90903920016534
C         1.52860865340024    4.65753372996518   14.44688910040614
H         0.64385491322634    5.24843877218167   14.26119568410546
C         4.16904238737756   -0.21322780450641   14.77943463404049
H         3.45949686997717    0.06308813741175   15.54786361385307
C         4.99345367374380   -1.78859380936977   13.16730621068096
H         4.91345572502717   -2.74617687068646   12.67392180933143
C         4.06584571948991    1.52292482419422   19.07582056268209
H         3.17597814735349    1.64760680436124   19.67614093939015
C         6.34067096160635    0.79047031407860   18.85823764259866
H         7.22639703100498    0.34584729358928   19.28842547052550
C         5.40170456501651    3.50942542345476   10.33602749813608
H         4.79256281019471    3.54567802614536    9.45580282279909
C        12.35588273913099    3.60327989137791   15.20203496258890
H        12.21993943970364    3.61624474406735   14.13242855989417
C         6.58672465550966    8.24141117421770   15.87852793786324
H         7.24486527351463    8.39422670347718   16.72340199117363
C        10.91044854940072    6.70806782569766   15.24263694487657
H        11.46370740957545    6.87670479768893   14.33071367390414
C         2.48836702147393    5.10606979735506   15.34199839938324
H         2.35705890119460    6.04910951892260   15.85234103929804
C        11.53561948449110    6.84694886143128   16.47158277524065
H        12.57846579639889    7.12303231389835   16.51925916600648
C         6.79376958587398    3.29685580248373   10.39799430100119
H         7.46244503464395    3.13995251271887    9.57674716018415
C        13.74182815938309    3.79451987238558   17.15156389238883
H        14.71369119512823    3.95988269484666   17.59493621146217
C         4.07389800410653   -1.43683987768000   14.14420975196812
H         3.28219350213138   -2.12185441452126   14.41170524494738
C         4.98530763487743    3.66343711268759   11.62291427607241
H         4.01755055220271    3.84689721813968   12.04581733959956
C         5.19579846128131    0.94193995153047   19.62530933467578
H         5.18585479302960    0.61212773368438   20.65413851550986
C         5.95385436699017    9.31321725671661   15.27695153496445
H         6.11324785783295   10.31316802831516   15.65431163735136
C        13.59610566312109    3.81159418307542   15.77291405157740
H        14.45692229529598    3.99042455897888   15.14402483465918
C         5.11611429768754    9.10899000655326   14.19075678048641
H         4.62428550536018    9.95102556085859   13.72585275317453
C         4.91651197798394    7.83070451440265   13.69612593480142
H         4.27252955287950    7.67257450735923   12.84309647245701
C        12.64163003269537    3.56293256023824   17.96009437149385
H        12.75455936937963    3.54680648104923   19.03508153728044

