57
CSD_code = IZEVIT | q = 0 | S = 0 | Stoichiometry = C30H12F10N4Zn | MND = 4
C         5.00631814585725    2.56985037707632    6.10713568634676
H         5.70954695559140    3.37732151103195    6.21115733069644
C         3.79346875991904    2.57479450836544    5.39478762105525
H         3.38881905318558    3.39903173861885    4.84145595884230
C         3.25084644572787    1.32584893542282    5.55525734186153
H         2.32919503037530    0.95988567382362    5.14559431248860
C         4.15630215986824    0.58743874270249    6.37073212637987
C         4.01745088888537   -0.73785060645510    6.78178056152759
C         4.90522967035713   -1.49741142717686    7.54400791097892
C         4.72291038887948   -2.84451469016155    7.96954120590913
H         3.87113327722826   -3.46222714830936    7.75965254218770
C         5.83582168483172   -3.18325789440421    8.69581533325865
H         6.04795431173609   -4.12066587875326    9.17075189592061
C         6.66180344464209   -2.04534092645493    8.70071665213443
H         7.62239042188889   -1.93383598839731    9.17194814502732
C         2.76971280133655   -1.42368369783455    6.35561190479181
C         1.54411061585976   -1.09954610059169    6.92973686638217
C         0.36796710655294   -1.73329066330619    6.54086050120978
C         0.40808865524770   -2.71229162034511    5.55183446546508
C         1.62369067211744   -3.05001220275803    4.96323919584535
C         2.78840597951431   -2.40665832135024    5.37082413970106
C         8.96080536791911    0.53798981475811    5.79396579686513
H         8.37846888826316   -0.11925100186784    5.17257006780529
C        10.27141130150556    0.99481268236084    5.56751988319523
H        10.89077931491956    0.74800028875567    4.72801474126520
C        10.58185806057470    1.80647754873381    6.62840214130005
H        11.50348384256008    2.32820926998100    6.80075201382626
C         9.44001225041118    1.82250735883372    7.47990962278268
C         9.31312258245945    2.50774265526393    8.68792535109187
C         8.22707549901501    2.51286231127535    9.56220046751557
C         8.12423595473728    3.23228283887864   10.78755745275481
H         8.87592333180650    3.87261715905949   11.20727295896958
C         6.88883849222590    2.94696719943162   11.30970837999749
H         6.46468336081330    3.30911297172192   12.22526888636970
C         6.27010487885850    2.07295297384310   10.39779285878578
H         5.28996574296953    1.63551500222239   10.47035608700825
C        10.48021445809305    3.33588578021771    9.09105772341985
C        11.33713609720060    2.92759453736141   10.10819108595119
C        12.43342675191272    3.69648807216947   10.48730865675844
C        12.68272292455033    4.90523395387233    9.84308096602002
C        11.83538341568984    5.33322316527095    8.82466123672213
C        10.74808353420552    4.54593861823737    8.45848600059779
N         5.22894024606968    1.39749519734013    6.68357194745426
N         6.11728457843644   -1.04361402616088    8.02423058937265
N         8.46394010253303    1.02031841070748    6.92426274602359
N         7.05429557314611    1.81321823066092    9.36141126142601
F         1.49302735569186   -0.16866292350551    7.88473384110891
F        -0.79386535148174   -1.40775378241425    7.10875005059098
F        -0.71221280309384   -3.32345224105931    5.17023725183785
F         1.66637853517894   -3.98615603484484    4.01445532513747
F         3.94557040031117   -2.73430282707202    4.79242828707446
F        11.11231964132953    1.76805927522710   10.72925527868096
F        13.24371218552811    3.28246539732333   11.46213018130069
F        13.72817591297001    5.64961268974305   10.19974712045404
F        12.06938786521023    6.49133824698160    8.20638611621502
F         9.93915547589460    4.96920675248787    7.48485857377953
Zn        6.72598776198028    0.77848011345122    7.75189735253662

