61
CSD_code = IZEXUI | q = 0 | S = 0 | Stoichiometry = C30H26N2NiO2 | MND = 4
Ni        8.28656924517284    0.99961109346739   13.38978811294491
N         7.50310514928106    1.29819978316352   11.72011673121641
N         9.27417329479962   -0.41425925296881   12.63918627334285
O         7.22034940167419    2.29539107803974   14.15741851687682
O         9.03630843507221    0.75271813500852   15.03639892816861
C        10.24433491169221   -0.84847062693094   10.38630163579754
C         8.40755313334734    0.79909120971301   10.69599623172360
H         7.86974910415773    0.57110574141908    9.76617789172979
C         5.63148181795512    2.61528642468610   12.38991494448914
C         9.49765505312358    1.80912446881622   10.39656310043832
C         9.89989221840611   -0.11139385270049   15.41816988039700
C         6.51616490789833    2.07983243626449   11.39200656977096
C         9.88223234054989   -1.37937609829005   13.27260089907812
C         9.01345242769326   -0.53918144899219   11.20943722571950
H         8.25074768193986   -1.31742317247347   11.04254643601830
C        11.49802319650183   -0.38866867611391   10.76999277946848
H        11.61032641111027    0.14489914870202   11.70197897140331
C         6.07184382783331    2.68996333495639   13.75078655765678
C         4.34378403277739    3.07969334726453   12.06642646684395
H         3.97378671942553    2.96439053324822   11.05822607837300
C        12.59921026804405   -0.61115896411931    9.96413457624620
H        13.56805262463514   -0.24770603144973   10.27234288451594
C        10.11333153123347   -1.53259921050622    9.18529688382457
H         9.14188151962977   -1.89566765024860    8.87810203295644
C         3.51630895303229    3.62629911789772   13.01146017217724
H         2.52438908651734    3.95527144247533   12.74122498235663
C        10.33801556414374   -1.22124054661076   14.62751553570604
C        10.08477825956999    2.54397349045869   11.41953542576971
H         9.73878114596785    2.41921291322780   12.45313897546848
C        11.31486587638497   -0.88441844492855   17.24163936888850
H        11.69281325970718   -0.76433712254880   18.24683487456252
C        10.15487523786394   -2.70633767513265   12.61226733126677
H         9.47724771946497   -2.88863054842651   11.78365135428177
H        10.02445909108350   -3.50579846550254   13.33730361862076
H        11.17292474674004   -2.74453495609509   12.22729626855983
C         9.94437636041392    1.98467124404230    9.09264579873328
H         9.49647181630109    1.41531970155484    8.28983680237403
C         5.19766564416055    3.29868035055042   14.69114123421458
H         5.55218628910816    3.37019384305177   15.70781632291605
C         6.29614346302972    2.47556003889912    9.95529146795422
H         7.24473831843345    2.75342993081742    9.49862840530555
H         5.63009815233956    3.32837602488091    9.88819819639147
H         5.86562078595418    1.64897867245650    9.38881827750775
C         3.96049791716319    3.75203652106120   14.33191120844590
H         3.31240562738503    4.19823261385003   15.07267722664657
C        11.10666071549184    3.43363937047013   11.14231947878506
H        11.55669539659993    3.99820349865810   11.94494762195373
C        11.55168700631016    3.59856358841558    9.84126419627334
H        12.35040534562866    4.29231032871708    9.62547918543440
C        10.42478141700249    0.01669094230825   16.73298364254882
H        10.07795551344357    0.85835733612621   17.31241770533425
C        11.21567805969328   -1.75355221191247    8.37886633833619
H        11.10063435382956   -2.28714506531316    7.44692769040793
C        11.26333406965767   -2.12190014246945   15.19177038924153
H        11.63636423858561   -2.94446147465411   14.60176898605819
C        11.74767174124193   -1.96270768229575   16.46264572320521
H        12.46632191951948   -2.66282944564706   16.86093332869136
C        12.46118334071728   -1.29076534096319    8.76577338404017
H        13.32153375659295   -1.46047459509873    8.13592325192365
C        10.96786360747596    2.87314737983456    8.81704395282324
H        11.30885694949223    2.99828361788617    7.80009166779250

