179
CSD_code = IZEXIV | q = 0 | S = 0 | Stoichiometry = C110H65CoS3 | MND = 7
C        13.95159068896751    3.02092021878165   10.82783120379629
C        13.99320016571730    1.59717346138404   10.82735947426138
C        15.35421380396830    1.19921102222360   10.69052343138877
C        16.14752084956879    2.37574011545921   10.59031354518379
C        15.28199342754598    3.49816735678086   10.69162808010961
C        15.63742089115041    4.88124804953034   10.22038533051253
C        14.44916455921840    5.36663215391521    9.39495097794600
C        13.16734988353132    4.90122725771336    9.52700766010919
C        12.73003118680457    3.83637972209536   10.52997134605432
C        11.84102017447782    2.95382019296924    9.65275683116605
C        11.88411332376813    1.58565947122841    9.63537557934182
C        12.81196120149186    0.73086122338463   10.49317441550573
C        13.31444623135072   -0.28256900230144    9.46598674031144
C        14.62167996009702   -0.66332139321752    9.32164625679451
C        15.78215822020107   -0.14281711830793   10.16603277262320
C        16.82843812218497    0.13355522612162    9.08525735770187
C        17.59905123369668    1.26140138834426    9.01356803314914
C        17.52083642912464    2.42738840570146    9.99846743072519
C        17.52453624734558    3.61838681507660    9.03588623184538
C        16.69587859312673    4.70212982748569    9.13876486389771
C        16.28430250172393    5.38622590920172    7.95717557159509
C        14.91195580594833    5.78987839643894    8.11245776604170
C        14.07039582358826    5.80229867507435    7.00430658374010
C        12.73271719618438    5.32017561729901    7.14454738638143
C        12.31289513086413    4.85103145782459    8.38502238397496
C        11.50385064595791    3.66373885663527    8.46254540333160
C        11.15132201443035    2.99235628235116    7.29582277351145
C        11.19232430973314    1.56408331917992    7.27853933875469
C        11.58442716620716    0.88657754648262    8.42879422851311
C        12.45801858950158   -0.25205418492975    8.32500184951228
C        12.90377234610593   -0.66515994136039    7.07358557380409
C        14.26709947924072   -1.06542268754038    6.92205562778539
C        15.10758991646336   -1.02915047369831    8.03011573432378
C        16.45483717317547   -0.54497724624272    7.88756635467206
C        16.90506546685392   -0.11637613420701    6.64266068762681
C        17.70670826899495    1.06382824364518    6.56502779912618
C        18.01277353148316    1.74832099389458    7.73679557468180
C        17.97082479025399    3.18652663854383    7.75283551556996
C        17.62542960290725    3.88158569967406    6.59808374720996
C        16.75785195630462    5.01209304666056    6.70327827457948
C        15.88049060813973    5.01181011583261    5.56012875013032
C        14.55790218992665    5.40062165291777    5.70861178059245
C        13.51132151029992    4.66204611300007    5.04974520947292
C        12.37864533081291    4.61565567857567    5.93821519654743
C        11.60076358521894    3.47021009864266    6.01262724516224
C        11.92404061655064    2.32473445101742    5.20130296742918
C        11.66724565180079    1.14353862339117    5.98464775719316
C        12.50943974082974    0.04657149097320    5.88396721482356
C        13.64225870357043    0.08650154043949    4.99524003621386
C        14.73001024782770   -0.60625929110996    5.63683719434161
C        16.02825453241097   -0.13913207161137    5.49924100351751
C        16.29095935231358    1.04016742118960    4.71485352962740
C        17.33378839401680    1.78402108131999    5.37353763962156
C        17.29402966442272    3.17011606453428    5.38948294437852
C        16.20983473130663    3.86850810143145    4.74800460404014
C        15.20087407968016    3.15237219512152    4.11341641491018
C        13.82647841578986    3.55675507502732    4.26686568618316
C        13.01823919125135    2.36634837723183    4.34423574083174
C        13.89320698662416    1.22631223665642    4.23917083748740
C        15.24221531979958    1.71211132820626    4.09648849876811
C        12.04777409888307    4.37175148551022   11.77066632678439
C        11.91195721461288    3.57422358867580   12.89659779083231
H        12.23300240607970    2.54090263471134   12.87734523075073
C        11.37411334037904    4.08388908840223   14.06403184357360
H        11.30379448851166    3.42572797795320   14.91452662544325
C        10.96016177665017    5.40703357464067   14.14939478212949
C        11.05752349172393    6.18376856210308   12.99812442162863
H        10.73260540912493    7.21329651218620   13.00892116124775
C        11.58514886138296    5.67839760189225   11.82560380009043
H        11.65484582023991    6.31268482040834   10.95230629779138
C        10.45002488654235    6.03255841665627   15.43680349571556
C        10.37696060931381    5.02828521386513   16.59006697945233
H         9.70035993612192    4.21003959211963   16.35371191585769
H        10.00248384434921    5.52688317921855   17.48183830381584
H        11.36011379224376    4.62396653898893   16.81993497012552
C         9.04481467410438    6.60667052311005   15.21156769891924
H         9.04665178016409    7.37912874014849   14.44773673457043
H         8.66760078540897    7.04337954842733   16.13385509596194
H         8.36255210766096    5.81888328911866   14.89862843866493
C        11.41761380582950    7.15543384438670   15.83887970733979
H        12.42089478632209    6.75377896138378   15.96755825213636
H        11.10220394652680    7.60666758066757   16.77719263523648
H        11.45594414412962    7.93384754423398   15.08149432887744
C        12.15136644260287    0.11365791257121   11.70773921626594
C        12.86044675219039   -0.76915525393233   12.51034213298028
H        13.86439806008821   -1.06026862460262   12.24302201960837
C        12.29798125081655   -1.26497369355208   13.66855409618133
H        12.89103476117567   -1.93492591116651   14.27193698140783
C        11.01423787613964   -0.90340780841723   14.06997371473030
C        10.30300492754559   -0.04685206360299   13.23994105132567
H         9.30074373941310    0.25937251109388   13.49124243294435
C        10.85934381294109    0.45357667547010   12.07475801648505
H        10.28354929227123    1.13023844684962   11.45904476848236
C        10.46425602489960   -1.43495275696303   15.38318926364819
C        10.44925014137485   -2.96908737348933   15.34151260176644
H         9.82785052698059   -3.31680123815569   14.51865951961133
H        10.04480002309131   -3.36489503430946   16.27071134165202
H        11.44916772105142   -3.37193010627721   15.20738517960887
C         9.03970086640327   -0.95113897716902   15.66677144333835
H         8.35208899454881   -1.28195246786019   14.89166623939390
H         9.00119309726417    0.13338847401840   15.73898896042567
H         8.69964937272674   -1.36223577753996   16.61517205510173
C        11.37228251091615   -0.95211363225829   16.52359863525870
H        10.99736441912081   -1.31049971438327   17.47993432549218
H        11.39915123201676    0.13542814652544   16.54890057570076
H        12.39011382544481   -1.31097420098460   16.39884504549576
C        16.28527009150893   -1.10136259478744   11.22312993239253
C        15.77598794063723   -2.38475006419926   11.33423172532134
H        15.02099760111812   -2.72756235605577   10.63994108145930
C        16.21326035403935   -3.23204198503154   12.33850406089520
H        15.77800736919940   -4.21648617812139   12.39244721059500
C        17.17427860157702   -2.82842980398003   13.25572382870213
C        17.70228413913019   -1.54780976915748   13.10946270868270
H        18.46118500350369   -1.19114769548774   13.78886494283289
C        17.27184198450687   -0.69740950852717   12.11226330826618
H        17.70497867468876    0.28813507973809   12.03124831657918
C        17.65143418244782   -3.70852160343133   14.39913297090519
C        16.98763429278271   -5.08813029221757   14.40034060357349
H        15.90916553185586   -5.00432909179523   14.51292358955315
H        17.36715798852157   -5.67196959215225   15.23650970910530
H        17.20997898803605   -5.63035819861346   13.48404583293810
C        17.31391902454618   -3.01078779188490   15.72456568253496
H        17.80638106562081   -2.04544409567746   15.79983213739824
H        17.63198430653956   -3.62481341385232   16.56445399924260
H        16.24081242845213   -2.84800978601057   15.80068699307869
C        19.16899973569467   -3.90904023101671   14.28607124479721
H        19.41680705046933   -4.37669013049367   13.33528602856635
H        19.52214585776396   -4.55202001431255   15.08950530419727
H        19.70049440990752   -2.96371641658951   14.34926021961788
C        18.67595055215722    2.50102874490495   10.97609461869027
C        19.97314781184125    2.28260629643872   10.53060771555311
H        20.15204349745221    2.02847156087593    9.49584724422158
C        21.03831800796552    2.38689886431582   11.40249419853990
H        22.03119552438095    2.20706788518046   11.01882597879303
C        20.85689276816630    2.71736504309961   12.74400676576489
C        19.55535026964378    2.93310994996292   13.17735269158173
H        19.34669033633505    3.19177220875588   14.20235128329978
C        18.48445890216033    2.82771234443687   12.30835616952827
H        17.48264316239295    3.00940770670164   12.68812172784849
C        22.06343195815619    2.82526785157831   13.66195315037911
C        23.01715000955749    3.89566173900778   13.11286434460151
H        22.50881499984933    4.85572301023466   13.04923219976505
H        23.37880465516766    3.63581044564055   12.12193224052628
H        23.87683269649483    4.00370792906924   13.77071163894161
C        22.77663525617721    1.46665219665695   13.70808914860035
H        23.63743889761592    1.51765005558792   14.37132557103481
H        23.12317082903136    1.16694869719012   12.72290448091803
H        22.10005879840653    0.69940501564128   14.07907583595243
C        21.68153953734724    3.21510694528769   15.09256938117727
H        21.18727208004192    4.18365669875727   15.11647699573150
H        22.58041472236725    3.28226214466962   15.70203674943219
H        21.02750424662590    2.47108184603255   15.54125910777126
C        16.04734806777220    5.75906806439482   11.38245279414258
C        15.08725874272271    6.36844405258778   12.17453166053292
H        14.04310649755750    6.29456071386698   11.91286472743429
C        15.45154002183353    7.05706814594837   13.31847928451552
H        14.66684949811832    7.50072409479811   13.90842870569636
C        16.78007604921142    7.15052401631830   13.71148187830649
C        17.73572272869880    6.56536290540779   12.88509522300427
H        18.78350546274092    6.62374078100620   13.13880393880215
C        17.38230034615086    5.88282960575244   11.73857363209355
H        18.15076969018500    5.43091924562646   11.12857188576463
C        17.21807903392028    7.82739085240979   14.99957296304545
C        18.17625568935529    8.98010175022852   14.67064171772680
H        19.06136584366745    8.62440273945522   14.15050399217052
H        18.49461316193698    9.47543418918114   15.58553480674374
H        17.67981266217510    9.71176798072543   14.03652823660342
C        16.04020379099714    8.39346085233789   15.79644006137187
H        15.50859923564314    9.15124781180827   15.22562873531521
H        16.40878367278286    8.85745084657942   16.70912586104750
H        15.34610731886005    7.60454819393126   16.07619120352064
C        17.93073088841495    6.78586339256088   15.87455246036006
H        17.26814608586209    5.94412231942893   16.06551429858805
H        18.21659342060830    7.22640098106458   16.82736069898310
H        18.82770981059143    6.41034986150186   15.38977454563185
Co       15.07924196013246    2.35828971160370   12.43919120599772
S        15.13641961072557    0.91399947205992   14.07258044962676
S        14.94362950544952    2.40678825137751   15.42127107291680
S        15.03567762276011    3.87767847893221   14.03088084788743

