86
CSD_code = IZEYOD | q = 0 | S = 0 | Stoichiometry = C40H39Br2NiP3Si | MND = 4
Br        0.07755919891986   -0.53145146025096    8.54425857141040
Br       -0.39949022128825   -0.28188682925113    5.26918040823532
Ni        1.32750541734655   -0.09837837561537    6.69063695162582
P         3.06766493080425   -0.67792245750609    7.86511360685328
P         5.98281598321492   -2.58095740801862    4.51471679820479
P         2.32352030590971    1.34752264217851    5.42846549271384
Si        5.31042591020599    0.28702983931846    5.67001969221409
C         2.77588418631497   -0.10597419479039   10.58717947457029
H         2.07810547647602   -0.92987450729412   10.61058868277763
C         4.30436794428514   -2.42248815696489    3.78134085239281
C         4.09399855701251   -1.88678754832321    2.51423549127656
H         4.93995501159165   -1.58840321948082    1.90885091190407
C         1.86808909466924   -4.56472433719881    8.14221102450956
H         1.13327529141089   -5.19310176684954    7.66197639498307
C         3.42320387873721    0.22727326384813    9.40070459406599
C         4.75985358336930   -0.83451657630551    7.11883130616973
H         4.80059189262569   -1.86197194886071    6.74494913609179
H         5.47739468096137   -0.77075142622741    7.93989044786376
C         3.01864006141640    0.62740712886530   11.73403651116156
H         2.51292424106659    0.36322776734973   12.65032148232176
C         3.65536705900559   -4.27593192659495    9.71870101049612
H         4.31420053277318   -4.68493676806897   10.47069851293134
C         4.30041651474177    1.30661683059773    9.37725188393590
H         4.79365422830448    1.57719751316255    8.45557186900007
C         2.39316707742551    3.91479444022597    8.58568420582452
H         1.91115389658969    3.96702010856467    9.55003832904288
C         2.13664050203134    2.84624893641046    7.74566985730486
H         1.43510062520398    2.07585159679405    8.05816939558346
C         2.75183241242119    2.76020649828637    6.50125562899050
C         3.89799950867839    1.69734675311211   11.70774654877872
H         4.08214568731411    2.26961413491968   12.60485378310661
C         2.80727752152311   -1.74072758814948    2.02592480588347
H         2.65312395770599   -1.32521386547499    1.03949369150702
C         1.92398462242337   -2.67879200791485    4.04832461121767
H         1.07398804263897   -3.00140900081327    4.63056935741850
C         3.75376205270118   -2.94072202592716    9.37582295662271
H         4.48512861429053   -2.30707577743723    9.85892020201833
C         2.71618005831376   -5.08858179788591    9.10280955978326
H         2.64430088864157   -6.13078340136796    9.37579351258210
C         1.95917021310929   -3.22779547124780    7.80175321567153
H         1.28174771100196   -2.81093906240343    7.06208194034646
C         1.71955232516015   -2.12330031731292    2.79609041049523
H         0.71367086530915   -1.98889957532616    2.42890730500877
C         4.53915827692455    2.03504459535088   10.52726621656838
H         5.22270638547622    2.87127891792817   10.49842699026216
C         1.40546359188826    2.19882517484825    4.10293029670520
C         6.35440831280550   -4.20424997544631    2.29740628633444
H         5.41085300002818   -4.63580987607003    2.60518316817078
C         3.87982106733849    0.91665913535663    4.56882037493563
H         4.19477526171228    1.78503013766664    3.98630749698471
H         3.61343681453515    0.12985692876044    3.86035028277326
C         6.36357365869817    1.76367546787335    6.26912196554821
H         5.77350144911657    2.55923059808967    6.71256371150855
H         6.90680828068492    2.19406889613502    5.43282932324816
H         7.09970220961584    1.44501395558035    7.00118340915509
C         6.43852622641757   -0.77611245292091    4.54436745703861
H         6.45244072596850   -0.38845659351777    3.52453697071475
H         7.45581630573181   -0.72350682929379    4.93410587144813
C         6.87739394680225   -3.12773329764581    3.01114089240594
C         8.10557167009372   -2.59981606507454    2.63052796396213
H         8.54519846208334   -1.78707179867936    3.19061544508320
C         0.68069120013856    3.35201212036865    4.38568981400095
H         0.68803387966354    3.76504226087605    5.38531793870106
C         7.02260626428392   -4.70962898183495    1.19953352745246
H         6.60087080924481   -5.53667274219448    0.64701140746626
C         1.34888270347238    1.64961118241644    2.82590340872504
H         1.86627503422429    0.72637621473977    2.60851335519049
C        -0.09159775846157    3.43113755235912    2.11627757381724
H        -0.67432053563095    3.90991320650768    1.34371820373289
C         3.60662371056068    3.77801606560137    6.09022810388458
H         4.06025812042890    3.74261457334457    5.11008456488236
C         8.77384871548103   -3.10864726779667    1.53084930322539
H         9.72319558110567   -2.68334851919826    1.23775733079061
C         2.89656891200165   -2.40828384303368    8.41831769175859
C         3.86563035599374    4.84313053486012    6.93253276433816
H         4.53398408756230    5.62908927916507    6.61152545575480
C         3.26678808147281    4.90925316074555    8.18186112847103
H         3.47412353815940    5.74473956146612    8.83368904214062
C        -0.05768995594792    3.96758969811451    3.39201562571268
H        -0.61564093543454    4.86374217027012    3.61959919500360
C         8.23320653024301   -4.15909502548435    0.80976925999352
H         8.75634297824237   -4.55253322891967   -0.04920497592611
C         3.21047289244718   -2.83189950782322    4.53588819101853
H         3.37344942144469   -3.28835897075228    5.50422876990473
C         0.60807120048636    2.26879189152127    1.83757890652542
H         0.56781918058303    1.83622304094651    0.84888986547984

