44
CSD_code = IZIBIC | q = 1 | S = 0 | Stoichiometry = C16H24ClN2Ru(1+) | MND = 9
Ru        3.30171198640210    8.14523720749539   10.08412962382423
Cl        1.12000013835188    8.14560046381933   10.95827367189392
N         2.64047745325138    9.48849964912406    8.87809400308169
C         5.45576949234634    8.85477264098237   10.05890587834231
C         4.85502183054441    9.56888140704068   11.15352938538686
C         4.09152746831959    8.86697648754026   12.10905162349647
C         6.20364846819613    9.61928701999259    9.00178476211757
H         5.80500721375162   10.62214588822481    8.88037029569192
H         6.14492176075268    9.12635014245156    8.03574346973073
H         7.25736602542624    9.69184838971202    9.27528337389411
C         5.11530461022447   11.04439192098847   11.31035523759564
H         5.11685078429198   11.32038827082771   12.36123784170724
H         6.08987002486972   11.30199805289094   10.90524291479676
H         4.36155263608046   11.64559986357917   10.80166813689512
C         3.35732623305000    9.57799005737433   13.20691553184885
H         2.33601787918315    9.20447358665766   13.26970511408369
H         3.84299111624496    9.39641171808830   14.16590580130574
H         3.29858161293376   10.64734710319737   13.03531857237919
C         2.08421042909651   10.32386532586227    8.31138070231586
C         1.40852694826034   11.35607789574859    7.59700703404375
H         0.70601522114230   11.85711323601854    8.26388380970200
H         2.12462696467990   12.08295810581856    7.21395210292536
H         0.85730052431623   10.92229739992383    6.76257909863237
N         2.64048714876870    6.80169295929046    8.87838136929280
C         2.08409576147997    5.96633656247137    8.31181828136028
C         1.40786816928485    4.93448942306276    7.59742954317729
H         0.70633833867878    4.43266218297523    8.26474381214223
H         2.12381846539157    4.20817748770292    7.21304424769910
H         0.85547315224525    5.36864310757305    6.76396635166886
C         5.45584132531914    7.43578023190590   10.05895275484328
C         4.85508247521047    6.72155926509949   11.15351001045548
C         6.20412475905577    6.67118822242621    9.00222155903811
H         5.80623583455185    5.66794578719052    8.88146851044942
H         6.14486415368525    7.16365515596175    8.03596204273515
H         7.25791612358094    6.59955569075870    9.27562225968121
C         4.09148381391264    7.42350661459500   12.10902705915274
C         3.35685140994053    6.71260993290162   13.20675301849297
H         2.33596346492386    7.08702315301444   13.27012914843915
H         3.84300751116022    6.89307654181934   14.16569153379205
H         3.29670178501522    5.64345962196012   13.03471324453287
C         5.11579035322276    5.24616672401319   11.30992366779690
H         5.11510082169452    4.96987416216914   12.36103229604107
H         6.09181024143130    4.99019060642843   10.90650950284842
H         4.36321806973384    4.64509473332199   10.79878180066606

