39
CSD_code = IZIDOK | q = 0 | S = 0 | Stoichiometry = C12H22ClHgNSi2 | MND = 3
Hg        3.50678757833317    3.51971130558742    0.20540677917224
Cl        4.51784411407333    4.44493568716685   -1.77148901191712
C         2.57378158765670    2.38645499012191    2.04817241533473
N         3.51992834602177    0.92006287983360    0.40257693209481
C         2.91972132642267    1.02916424400711    1.59296869679936
C         2.64411376374481   -0.11308820842350    2.35050655983459
C         2.98861816879464   -1.35465928763884    1.85846645318121
C         3.60454939870131   -1.44639869669522    0.61626103753829
C         3.84956560695146   -0.27295082062747   -0.07104256137435
Si        3.53840637060349    2.86917460941847    3.63845383023444
Si        0.67044007768022    2.64553228749877    2.00634582861518
C         2.68688979046238    2.33934891762154    5.26516993953613
C         3.76871169816831    4.76148315956670    3.70127960445057
C         5.24776073100224    2.02960820986094    3.52297800824146
C        -0.30181877593616    1.50108308307209    3.18938683273013
C         0.07626692897581    2.25395182090821    0.23531593123073
C         0.29586467566459    4.46166075759575    2.44244759816248
H         2.16874339566586   -0.00765406422982    3.31069391363126
H         2.78277456597641   -2.24558435687043    2.43409893104570
H         3.88825021355252   -2.39918121895628    0.19950162478748
H         4.33114591832146   -0.27628330049045   -1.03958511653808
H         1.72997280154589    2.83508506352278    5.39000597729916
H         2.51911648390540    1.26873270422371    5.31571426066486
H         3.30599364711866    2.60882584787102    6.11540699769598
H         4.19684689064630    5.14791885768215    2.77693853511806
H         2.82984684241994    5.27593760627195    3.87028471360857
H         4.44120063016160    5.03575636745899    4.50736315954373
H         5.16715646406831    0.95055146143848    3.60837020879769
H         5.71846017227621    2.24550674534238    2.56649170134456
H         5.91759463139152    2.37345981405644    4.30439276287064
H        -0.24951363093518    0.46507343875995    2.86968907181776
H         0.06320420115610    1.55516763822117    4.20874429677162
H        -1.35049675185623    1.78279094877138    3.20393160485547
H         0.57102603372700    2.88598659313793   -0.50168089599227
H         0.28933498735223    1.22206963320717   -0.02721094820887
H        -0.99293465496211    2.40619382702131    0.12830865084427
H         0.43710162305861    4.65538063276158    3.49982191188552
H         0.93553504181016    5.14406335237106    1.88888354370737
H        -0.73219089372140    4.70732746956385    2.19933022059220

