29
CSD_code = IZIDUQ | q = 0 | S = 0 | Stoichiometry = C9H15ClHgN2Si | MND = 3
Hg        6.33024971372843    7.92101364817091   13.58727767319570
Cl        5.65382374660595    9.21229747406847   15.35044662439178
N         6.99658757465730    7.09858664645337   11.63858926411495
C         6.94390460001337    5.81612265186259   11.99503735899106
N         6.54969983618047    5.60888865600519   13.27598757497200
C         6.44250842773889    4.38525650864953   13.79273626453841
C         5.99755629359038    4.28504929343224   15.21735537098479
C         6.73267117103377    3.26655948722667   13.03236767534622
C         7.14141036474742    3.44444300368162   11.71171979791261
C         7.25116159233501    4.70615344699125   11.18338050162354
Si        7.42281680957595    7.80574687480724   10.10592073247896
C         7.27062287021238    9.66419050555653   10.49059423299425
C         9.21335249612226    7.38411190055658    9.58981537661776
C         6.19236336206561    7.29998182522056    8.73480748018641
H         5.82485569645509    5.28234834764240   15.62401655211083
H         6.75561828175470    3.78279908475099   15.81576548459816
H         5.07682776676455    3.70837345576400   15.28616308591154
H         6.64203010672531    2.28139578042463   13.45960797169128
H         7.37280529359857    2.58372075677332   11.10135319464756
H         7.56497499173874    4.87166257401073   10.16807023398125
H         6.32517669238155    9.88340702488933   10.98807966503949
H         8.07434452884393    9.99544762382363   11.14314460282316
H         7.31243988892352   10.26631890321534    9.59003112734720
H         9.89952380735862    7.52379907449687   10.41983677128828
H         9.31154497164625    6.35626616408699    9.25496656108245
H         9.54318104188316    8.02450477504350    8.77785706749858
H         6.22112195097872    6.23281532448833    8.53771272402631
H         5.17396752007665    7.55068035800413    9.01660564763128
H         6.41235860226234    7.81175882990363    7.80325338197396

