82
CSD_code = IZIFIH | q = 0 | S = 0 | Stoichiometry = C30H44BrN5SZn | MND = 4
Zn        6.76385770884811    3.78531701146707    4.45293958268699
Br        5.51944113230237    5.02948577367541    5.98360819110873
S         6.72282593603343    4.13017087300767    2.12231188309132
N         8.87612458343488    3.62709933986702    4.68478940716064
N         9.30574895114853    3.15583831138211    3.49658667842176
N         7.86793924055912    1.24521431649782    3.74157964840844
N         6.79472305063690    1.69455535235049    4.42557604685640
N         7.42762194560159    1.88219675062221    0.78780599517515
C         9.82735844968659    4.42748884945416    5.15716774261285
C        10.86278831668474    4.49983995187573    4.22076827708596
H        11.75510858861781    5.07864334000441    4.31513859966659
C        10.50768165895404    3.69031648792193    3.15863006549046
C         8.55090191483801    2.12793131574979    2.82153129125324
H         9.26308802402698    1.52215001091304    2.26210921261840
C         7.98628102989314   -0.10157667819521    3.86729493977078
C         6.94506442030651   -0.50209860151607    4.67812830975331
H         6.73021501406683   -1.49827521603002    4.99682663049608
C         6.21798337788804    0.64732865160988    5.00259427338977
C         7.53922244443437    2.65192794405949    1.79320664476834
C         9.77167111390972    5.10571922164549    6.49735801183711
C        11.19807995033985    5.31419456595500    7.02256710361028
H        11.74648278446366    4.37455243528595    7.03930747376612
H        11.15607499047853    5.70530323622987    8.03594391206746
H        11.74359805733109    6.02757006482146    6.41051936628687
C         9.09627261676634    6.47358523205305    6.33636165295118
H         9.63892342429996    7.08439552524394    5.61752783358216
H         9.07903275819990    6.99150333805917    7.29153072142454
H         8.07177316534720    6.36569337459747    5.99399878005135
C         9.00016294103761    4.24259745283714    7.49855225295024
H         7.97627610526377    4.08534904830666    7.17649429944204
H         8.97410686895333    4.73473751811834    8.46702617350715
H         9.47957286816169    3.27232498098607    7.61253826268190
C        11.24416233386286    3.55350641690549    1.84672290777001
C        11.82536725303940    2.14926154864252    1.62733386725773
H        12.37421660811610    1.81761625931351    2.50661046209653
H        12.51779587843256    2.18022250126913    0.78931588744172
H        11.06165911175766    1.41633378322050    1.38293859009853
C        10.31706703588942    3.92836651742159    0.68232292511716
H         9.56430760496498    3.16832347729922    0.49820684143173
H        10.90194848859180    4.04361294372157   -0.22711108147426
H         9.81251915753917    4.87077908397828    0.88552781352643
C        12.42020963938254    4.54165785118953    1.85019769995628
H        12.07045633546655    5.55987525796202    1.99793564278406
H        12.93351333909522    4.49670873593666    0.89273272684734
H        13.13683867242560    4.29311380573736    2.62903167722097
C         9.07378123560524   -0.96634829306683    3.28920344025896
C         8.92050424704986   -2.40087807964901    3.81642773881277
H         8.98690750758931   -2.42951692605303    4.90115313375640
H         9.71831784318212   -3.01769579607065    3.40957860034466
H         7.97112541205188   -2.83169556898667    3.51034074939678
C         8.97125230229408   -1.03674457927505    1.75545577581512
H         8.12471608012645   -1.66267861129855    1.48170273844006
H         9.87199824120505   -1.48879809602617    1.34625750282858
H         8.81273857745214   -0.07404744585658    1.27819048129922
C        10.44135470475156   -0.45827498178175    3.77301190968747
H        10.60653892035174    0.59114671460811    3.55892399549750
H        11.23687722286511   -1.03374607658930    3.30535567138891
H        10.51569892693358   -0.58890011489978    4.85115048580544
C         4.98844884250686    0.73613485561582    5.86248405022983
C         3.91258355298254    1.55734480277873    5.14456227520764
H         4.26749219662219    2.55674842523134    4.90839844555833
H         3.03495074680286    1.65421537376233    5.77815996020515
H         3.62167977723191    1.07070847748161    4.21555224465562
C         5.36313945594624    1.38578916578701    7.20051376703710
H         6.12895224836422    0.80020793782098    7.70555020319445
H         4.48805960623957    1.44174669754551    7.84213323372016
H         5.73980204308157    2.39307561437344    7.05599561082448
C         4.43361522744310   -0.66649417310428    6.13344452904116
H         4.21745224244832   -1.18588109349409    5.20253011343345
H         3.50972023519040   -0.58437701661685    6.70038469146305
H         5.13459062730855   -1.25971528896972    6.71570082953365
C         6.63008931579505    2.09228556097934   -0.32149460322670
C         5.93140872952878    0.99548334535157   -0.82751669004596
H         5.98153027030065    0.05574602210087   -0.29751099708185
C         5.16989576068218    1.12703383568064   -1.97055902345544
H         4.61961118002418    0.27693002110033   -2.34772746761499
C         5.11393167264319    2.34073476281715   -2.63754645362760
H         4.52075098582622    2.43930525596849   -3.53460955985709
C         5.82537839611444    3.42472435842027   -2.15177165568810
H         5.79068403437022    4.37140736396163   -2.67121709588850
C         6.57823854275820    3.30938475054020   -0.99956333705530
H         7.14011819724890    4.15178083835306   -0.62573051796125

