81
CSD_code = IZIFAY | q = 0 | S = 0 | Stoichiometry = C26H48CdN4Si2 | MND = 4
Cd        4.53347522941518    3.11286896928574   13.10338855412818
C         2.55490074117411    3.01151432727442   14.15509140854543
C         1.67725657232860    2.66673481420051   13.04477266673372
N         2.17681002474660    1.84744479583444   12.10248425022948
C         1.40606228968833    1.44781082863663   11.10115028113515
C         2.00678581979214    0.49400929764309   10.11062246861344
C         0.09279834224902    1.88092857611007   10.94774208220184
C        -0.42800983533108    2.75744838668345   11.88840172515933
C         0.36136846909238    3.14641103267919   12.94870703809011
Si        2.67057881654818    1.62228063524451   15.42767348003312
C         3.33291504682195    0.01054396185254   14.65045176559087
C         0.96334339595839    1.21995711426592   16.21568126309518
C         3.83110292108941    2.18589154661065   16.84466698298939
N         3.93860699198058    5.62297282415279   11.68010037165048
C         4.84864810616821    5.90060388819531   10.57927556274200
C         2.60366607595473    5.40556322946837   11.14159911255303
C         3.92612529694006    6.72504206819880   12.63720222146850
H         2.20946339180149    3.92667825124458   14.64114346978311
H         3.05108998522669    0.31974089487954   10.34966900973777
H         1.93024451852595    0.89482721798318    9.10115161198240
H         1.46987682352737   -0.45369510456025   10.13621498064801
H        -0.49842915439326    1.54483089913835   10.10958560258393
H        -1.44321568221139    3.11938803659417   11.79596866713173
H        -0.02297163331435    3.80855114715221   13.71149678861037
H         2.70204490035358   -0.29550036554403   13.82182948355394
H         4.33918911435158    0.15330375950431   14.26514068976901
H         3.35496167831021   -0.80507063354666   15.36767777150036
H         0.55418039329570    2.07994430923402   16.73754439441793
H         0.24860790800728    0.93329576620902   15.45005599879873
H         1.02624773785712    0.40440359151227   16.92958201609350
H         4.78234426920892    2.53645814114875   16.45204579964523
H         3.38611477459378    2.98587171535911   17.42812579751544
H         4.03384246686662    1.36670970056991   17.52602917470103
H         4.53030894450577    6.78472762716887   10.00246328946224
H         5.85314358209485    6.07906358334832   10.95438349432042
H         4.87938367123633    5.03928267838459    9.91566145246891
H         1.91127150587658    5.16738643710259   11.94641969377933
H         2.22903403172067    6.28915148555892   10.60006938640608
H         2.62615133756285    4.56164104511445   10.45323292590788
H         3.01855399301804    6.63787267068739   13.23672825299915
H         3.88983481582444    7.69790747828362   12.11416527450362
C         6.51205172776640    3.01151476309113   12.05167048777541
C         7.38970527906224    2.66673924221114   13.16198702837589
N         6.89016135126166    1.84743247305908   14.10426724747257
C         7.66090881377084    1.44780059393473   15.10560437102304
C         7.06018256449775    0.49400635827798   16.09613747825803
H         6.01592284503527    0.31967908599602   15.85707190620563
H         7.13669671431759    0.89483202792422   17.10559823173710
H         7.59710555026900   -0.45366784621076   16.07057581558066
C         8.97416670391793    1.88093666229268   15.25902387825376
C         9.49497122354305    2.75746309452390   14.31836400945166
C         8.70559373210382    3.14642142245299   13.25805553747974
H         9.08993168983118    3.80856689356250   12.49526727309346
H        10.51017421226170    3.11941383339752   14.41079994633131
H         9.56539414098485    1.54484139547951   16.09718349122057
Si        6.39639640761944    1.62228500455730   10.77908588289300
C         5.73405352877301    0.01055145285837   11.55630562095898
H         6.36491623830214   -0.29549826362938   12.38493193846998
H         4.72778062271125    0.15332433968229   11.94161506065891
H         5.71199954830859   -0.80506805764216   10.83908467916999
C         8.10362825786894    1.21996286724649    9.99106421922679
H         8.51278415277441    2.07995394282642    9.46919976907813
H         8.81836957369388    0.93330324124474   10.75668462886593
H         8.04072079868314    0.40441033355310    9.27716045345534
C         5.23588112019644    2.18589013322482    9.36207662542538
H         4.28463548665796    2.53643700015054    9.75470431411456
H         5.68085891272468    2.98587875396371    8.77862114378460
H         5.03314545055541    1.36671320330932    8.68070924863284
H         6.85749056271181    3.92667935755326   11.56561881672957
C         5.14082914838338    6.72504057143784   13.56956975371384
N         5.12835654587649    5.62295435958203   14.52665099800375
C         4.21832729333753    5.90058935814558   15.62748486573275
H         4.53665965508350    6.78471221112822   16.20430507784057
H         3.21382868732190    6.07904169688367   15.25238210640950
H         4.18759586810989    5.03926401646659   16.29109429307900
C         6.46330006083904    5.40555745550859   15.06515565505624
H         7.15569215602286    5.16738417448585   14.26033143571120
H         6.83794165824859    6.28914261627365   15.60668959677606
H         6.44081744716487    4.56162801665292   15.75351457524535
H         6.04840067097668    6.63788012481104   12.97004535913095
H         5.17711591997157    7.69790546085226   14.09261091832814

