59
CSD_code = IZILOU | q = -1 | S = 0 | Stoichiometry = C24H16AgF4N2O8S4(1-) | MND = 2
Ag        7.70898839874394    8.16293299005721    4.97229377920785
N         9.77121365351006    7.95541969709755    4.34861551865620
S        11.01417810099078    8.41986876340208    3.44512005487333
S        10.26968433296723    7.36569546380137    5.73496580045805
O        10.54326475399052    9.16180084002330    2.30848762597485
O        12.01711992666354    9.06821549094153    4.25646571063503
O         9.10997196737426    6.78270660938120    6.39623893967890
O        11.39235627837904    6.47774532110273    5.59258559369402
C        11.68444279091805    6.87177712843264    2.84801163404692
C        13.01465284798591    6.55882337573605    3.04099690050014
H        13.64383184782556    7.27960822891963    3.53682510595448
C        13.49890607241873    5.33293796676360    2.61644312879318
H        14.53057879129000    5.04985904325134    2.75635211524952
C        12.62003894355274    4.45421015547983    2.00884386825524
C        11.28380454881635    4.75530893216274    1.81102393381102
H        10.63407737956999    4.03525062452126    1.33870799468664
C        10.81575261260337    5.98548722833208    2.24143217145949
H         9.78253732059092    6.27116040676767    2.12428183250099
F        13.08740266509078    3.25290656726086    1.58943990611553
C        10.76510996425480    8.77174637797700    6.72039815716759
C         9.85355116143598    9.78403041616670    6.95705456391100
H         8.82966572786214    9.69759983132258    6.59261007809788
C        10.24968418141855   10.90717177879243    7.66555197812096
H         9.56245200095101   11.71436203898857    7.86357625489204
C        11.55729662803248   10.98133094806857    8.11259751344513
C        12.47760811395334    9.97334192652237    7.88441175717602
H        13.48882002453064   10.07597843528866    8.24587568028825
C        12.06664785743304    8.85657733281725    7.17776004390130
H        12.73963434076145    8.04606128172730    6.95212414943145
F        11.95105265062905   12.07766026426240    8.80302192063147
N         5.64720239422515    8.35573073642263    4.34499575411888
S         4.40253392225291    7.87891095093209    3.45016727745565
S         5.14906861435311    8.98637801468111    5.71334312039574
O         4.87028270786689    7.11476798183482    2.32707996186504
O         3.39795422963913    7.24852261066291    4.27357144444523
O         6.30976534203177    9.58336456569903    6.35997308224726
O         4.03002407790042    9.87421920127175    5.54378323006799
C         3.73529822786623    9.41749445596393    2.82520782783510
C         2.40037278611543    9.72489870836208    2.99314705282985
H         1.76746647142930    9.00634159996612    3.48756362985620
C         1.91607646907194   10.94312156609567    2.54720207839781
H         0.88077903518894   11.22186391579107    2.66780117131064
C         2.79969653769350   11.82010886555855    1.94404131244554
C         4.14049142794984   11.52432127899443    1.77069914813488
H         4.79371918472943   12.24290951950650    1.30096967740818
C         4.60846929830906   10.30162756584600    2.22200712471195
H         5.64508969365098   10.02086935184857    2.12439280842186
F         2.33259741021718   13.01436517178749    1.50465440370524
C         4.64562868203681    7.61112606407793    6.73690047865875
C         5.55427170343829    6.60578512682251    7.01139586245534
H         6.58104465158395    6.68059508890091    6.65282412222242
C         5.15093983984554    5.50510587177704    7.75049866999495
H         5.83538360328742    4.70363127247600    7.97901696090996
C         3.83955973195827    5.44570771262023    8.18875421427086
C         2.92208753038179    6.44683153199666    7.92220701223381
H         1.90769994668440    6.35593930729616    8.27784194036803
C         3.34015733805456    7.54122962249842    7.18545673525102
H         2.67015297672722    8.34517101209609    6.92951763553080
F         3.43906028123141    4.37128586244936    8.90907255076156

