59
CSD_code = IZIWET | q = 0 | S = 0 | Stoichiometry = C24H30Cl2Si2Zr | MND = 12
Zr        1.89874979276863    4.42672285777195    3.39485443739482
Cl        2.44727870705247    2.89738302511385    1.69947253165772
Cl        2.86377177104882    6.07106853675001    2.02355765265831
Si        4.76092835895273    6.59892380737061    4.77309706928427
Si       -0.87341327275942    2.25632319974598    1.84265314774957
C         3.21142880236446    2.75717379978416    4.73862124522558
C         2.31739725383303    3.39802091097271    5.68171012255014
C         2.64670286971358    4.78523821255287    5.70351558461461
H         2.27647840597900    5.50885473343650    6.41917836445243
C         3.76244036597343    4.99468563245390    4.84908336979487
C         4.08493715715148    3.76305990807803    4.22614615225610
H         4.93013126712681    3.59081401212758    3.56805108295739
C         1.41082168492955    2.61173368423464    6.42002527782622
H         0.77965906485057    3.07122488497579    7.17005285913668
C         1.37443515389708    1.25650669196657    6.20586663836281
H         0.69557805844919    0.64096952597085    6.77793258985972
C         2.21980132972668    0.64024918645164    5.26552849298965
H         2.15776129248028   -0.42945178277658    5.13440662626076
C         3.12898578623673    1.36574202557322    4.53652193927984
H         3.79858396004605    0.87991837032585    3.83943910112725
C         6.02276544914944    6.54853009317090    3.34588948361046
H         6.55015446104859    7.49386994491012    3.27004573941025
H         5.53782251014903    6.36372429390109    2.39302902709407
H         6.76653996521703    5.77255134134143    3.50316822599162
C         5.71334490116788    6.68582485527029    6.43146467409346
H         6.36115105222786    5.82548500844464    6.56482342774286
H         5.03924177153673    6.72162798336396    7.28105735204363
H         6.33496133273680    7.57359422018362    6.46827225292320
C         3.54477461347562    8.06970409808172    4.69758999928718
H         4.07348967505012    9.01328503101825    4.78535943418722
H         2.81812655318828    8.02639773718603    5.50536749671142
H         2.99800057152625    8.08131746207449    3.75938583828013
C        -0.01502225176372    6.05238366426008    3.26044860052125
C        -0.19628493638531    5.33734611831843    4.50749753626836
C        -0.37428241378811    3.95962643036254    4.18484824788392
H        -0.69433830122239    3.18808357233019    4.87416384758310
C        -0.37297206047369    3.82662842168475    2.77016810105652
C        -0.11222776450370    5.09904880996747    2.20273628584320
H        -0.11150811562794    5.32924845865525    1.14257235909229
C        -0.25342305612236    6.05876745305027    5.71653778253773
H        -0.44702065668750    5.54237128126473    6.64813581239553
C        -0.10811490767980    7.42325143254602    5.68735946161276
H        -0.16982696063645    7.98906615494413    6.60552378769998
C         0.10062202740302    8.11245980527977    4.47900164593659
H         0.20472638954257    9.18658703855470    4.50538849352063
C         0.14943315373280    7.45107786537308    3.27718754855103
H         0.27794767011324    7.99141309412487    2.34890142298044
C        -0.51847218862916    2.43152525830465   -0.02153019410243
H         0.52609907241900    2.65892114039844   -0.20734572026982
H        -1.12055897051046    3.21908767114070   -0.46586894699455
H        -0.75344120044255    1.50917396675953   -0.54270362366641
C        -2.76351415761589    2.08543246795868    2.09355739101577
H        -3.29842447909574    2.94356853082607    1.69984789978533
H        -3.02377076111676    1.99149829797706    3.14283587751678
H        -3.13603893420105    1.20408818477284    1.58315831543212
C        -0.02241195205791    0.75978146349890    2.66925260145303
H        -0.37392066334648   -0.17148473037884    2.23700769319656
H        -0.23061096255627    0.72371189202689    3.73586947087155
H         1.05532671494007    0.79916296425160    2.54188106542473

