32
CSD_code = IZIXEW | q = 0 | S = 0 | Stoichiometry = C14H13ClN2PdS | MND = 4
Pd        3.24291959707519    8.25045937448482    2.29623727327278
Cl        2.23349617105534   10.17426976119437    1.97411273611814
S         1.58595779396689    6.88478235353745    0.96661281118419
N         5.17232484284036    6.51242105587643    3.34580410345921
N         4.09740201912706    6.55693176364777    2.64428580093838
C         5.57668351368187    7.74174318857743    3.76298729369277
C         4.76911803933550    8.86756140128879    3.42918382033984
C         5.17722729484591   10.11347732404718    3.87529329565828
H         4.59035726930115   10.99191546038464    3.63957609486962
C         6.33908921289173   10.24552508898848    4.62280065933018
H         6.64290173166233   11.22718910130756    4.95845855751242
C         7.13301833943262    9.14324964982371    4.95198862318842
C         6.74639232002683    7.89108786360425    4.52057324610502
H         7.33081408161097    7.01304215776322    4.75124161465909
C         3.55939499306381    5.34843921575466    2.21960052946603
C         2.39106588877646    5.34457541171817    1.44298894037678
C         1.83992382238532    4.15242230778197    1.00918876069742
H         0.94930615948254    4.17721903813907    0.40015259737689
C         2.43128738839665    2.94744131099690    1.35030526281374
H         1.99661918833935    2.02050880359289    1.01017193972476
C         3.58321938354102    2.93851143780759    2.12435343090860
H         4.04669030456670    2.00022070307703    2.38876820051187
C         4.14416658988024    4.12171373278529    2.55658741778022
H         5.04141285410129    4.13737693882546    3.15534726254394
C         8.37363979125955    9.33512482779800    5.77096598534643
H         8.10886813622334    9.58150580349210    6.79903280684903
H         8.96932168057975   10.15536706872753    5.37499539625973
H         8.97854409764963    8.43251586078345    5.77854889939477
C         0.47508284515858    7.07627642453610    2.41405938612607
H        -0.20960536216603    6.23271962822952    2.45036680323126
H        -0.07118610067329    8.00289279240329    2.24859532032821
H         1.05834611258181    7.14701314902482    3.34391512993541

