67
CSD_code = IZIXOF | q = 0 | S = 0 | Stoichiometry = C32H30ClN2NiP | MND = 4
Ni        3.52117477492673    2.80814684486093   11.61043759156479
Cl        4.46310435789086    3.85322585777613   13.10668694494188
P         2.77880038990640    1.34316236423286   13.01264891641543
N         5.15190710279407    2.90439063878830   10.18184296368745
N         2.51209789044881    2.32796659070749   10.12498513264409
C         4.59083188207522    2.32983189426767    8.96486196368110
C         5.34271760655179    2.13479292032378    7.82404974095362
H         6.39893215899076    2.36355032957393    7.82165323406043
C         4.75349978959720    1.64019854994772    6.67126063387417
H         5.34958044488257    1.47105419042507    5.78781982399729
C         3.39071171333324    1.38986809394057    6.66160445418015
H         2.91585157868497    1.04031238350051    5.75598654653833
C         2.62458641272704    1.58262300573935    7.79072594811126
H         1.55823525905451    1.42199397394894    7.74907526355022
C         3.20965906205629    2.03403549407594    8.98728544559831
C         1.17269308658277    1.98951117723520   10.27298116943591
C         0.63548265805379    0.73657200762510    9.95228127364602
H         1.28028992165100   -0.04589625344316    9.57908845285416
C        -0.71173689424789    0.49206446901241   10.13004429786263
H        -1.11327325236264   -0.47942115529425    9.87739283126882
C        -1.55003957213093    1.47527770491273   10.63093744640298
H        -2.60427724285934    1.27781030331625   10.75593605073737
C        -1.02644835150261    2.71012229704210   10.97848094592321
H        -1.67219244069294    3.47822839281653   11.37888329534125
C         0.31782459942334    2.96315677158664   10.80683628906963
H         0.74056473397259    3.92637180070472   11.06818995197268
C         6.26489384010699    2.09718155511051   10.69520556126916
H         5.93563662253194    1.06704977592671   10.84188433981940
H         6.59564348466553    2.50718338473577   11.65020192149183
H         7.11421372787362    2.09757625171934   10.00101169384120
C         5.61822954227483    4.26970973363361    9.91637099079178
H         6.46867858973849    4.27986273905353    9.22461669898099
H         5.91996544525962    4.73480240586989   10.85493273521673
H         4.80331350580107    4.84787855102570    9.48147308240096
C         1.04782956485878    1.56062822821604   13.52300426017393
C         0.72109676637402    2.82313640743532   14.01744205684554
H         1.49093440138571    3.58489478242631   14.05991389883255
C        -0.56493741826384    3.09340308825931   14.44092357794884
H        -0.81300217901515    4.07007167062137   14.82991860572329
C        -1.53822005663431    2.10920066349325   14.35844335443139
H        -2.54612533178662    2.31801743817006   14.68566301630463
C        -1.22224834949134    0.86327599182252   13.84509856270343
H        -1.98443356122476    0.10190803642032   13.76742523708240
C         0.06666925819802    0.58439501292121   13.42372433708146
H         0.30127503726253   -0.38504362025961   13.01017248043573
C         3.65647214274124    1.21428411849370   14.60921572649189
C         3.06263069736754    1.41586112034434   15.84683343935205
H         2.01614152985634    1.67620224526261   15.91473077369009
C         3.81695053578302    1.28826911108828   17.00163274500272
H         3.35108921971732    1.44998355689032   17.96290218564643
C         5.15907023111698    0.96088068268010   16.92857813110333
H         5.74304172621337    0.86856875904692   17.83230895247432
C         5.75527339089805    0.75790668233195   15.69327170093789
H         6.80410262920830    0.50734847209725   15.63279043348581
C         5.00773256782715    0.88482700225758   14.54035661893671
H         5.46457725752940    0.74388708040312   13.56894965401399
C         2.91010870316534   -0.40859281749230   12.51398297120108
C         2.59828053775809   -1.41666303299487   13.42266029952945
H         2.26271071529358   -1.15630565794360   14.41719975762109
C         2.72610204490407   -2.74290471213473   13.05530282376742
H         2.47733980890126   -3.52193396902228   13.76111369474992
C         3.17743685309965   -3.07500132667210   11.78691539503052
H         3.27609201576345   -4.11260891284570   11.50429144787703
C         3.51180576829457   -2.07647753156358   10.88849931861629
H         3.87632703406151   -2.33086785640799    9.90385879140173
C         3.38188009992677   -0.74742652455377   11.25321506042520
H         3.64984393084971    0.03738076652981   10.55888705896855

