69
CSD_code = IZIXIZ | q = 0 | S = 0 | Stoichiometry = C30H34N4Ni | MND = 4
Ni        3.52418605908724    4.85132399285006    2.29037721948805
N         2.00238809528472    6.18264533216683    1.43273668219922
N         4.68455910145463    5.83082411820767    1.17807651146757
N         2.48100393320717    3.51710722515770    3.11095344764290
N         4.42181729002740    4.99056686600751    4.28291945210331
C         2.73468102873785    7.00954817198482    0.47763788264617
C         2.12303931925343    7.95810513737274   -0.31977835930099
H         1.06220898896961    8.14536408170946   -0.23858493575314
C         2.86072490326877    8.69341349678927   -1.23277349929223
H         2.37556866265892    9.43986300871226   -1.84254149297207
C         4.21843716791784    8.44605306402116   -1.36847398340228
H         4.79161013362993    8.98528052945374   -2.10917799498808
C         4.84684315470696    7.51893267238638   -0.56977893421412
H         5.89720794049366    7.30580445129032   -0.70364683987960
C         4.12528105129646    6.79945490432657    0.40239630111285
C         6.05559014880283    5.79316398891198    1.36640460985238
C         6.83300045153245    6.90675533943459    1.75700657429485
C         8.19904711842093    6.73738269273771    1.92953339353548
H         8.79308418564257    7.59103840471847    2.22684968160877
C         8.81590314189295    5.51256895620142    1.74136520857269
H         9.88249661365752    5.41773629875347    1.87957822680331
C         8.05345467480296    4.41134313102750    1.38442867252937
H         8.52172851608058    3.44846298876181    1.24236003640812
C         6.69545588491667    4.55359249007302    1.20109856890517
H         6.08743481673675    3.70609631895427    0.91405660942576
C         0.82216519223958    5.60682492567453    0.78255388002056
H         0.12122533416986    6.38155110849498    0.45492136211237
H         0.29705767061930    4.95312582011742    1.47599972590015
H         1.13389355550333    5.02473962167192   -0.08255221030364
C         1.56469566776516    7.01008886692184    2.56561317082376
H         2.41954308705335    7.54409102565150    2.97927263118590
H         1.12141142941035    6.37894079588822    3.33678201244999
H         0.81816000982378    7.74981510886181    2.24769576869870
C         6.23494515916476    8.25836510332329    2.01974185217936
H         6.72630037555793    8.72663454733657    2.87228005008572
H         5.16656511954657    8.19401313988224    2.21324132476545
H         6.36883021894723    8.91159213268192    1.15669495667742
C         3.57568168059493    4.13869191711120    5.12159580857698
C         3.77186023311451    4.02099071114677    6.48378674717590
H         4.51535361901148    4.62287852761641    6.98680942223695
C         3.01692898703284    3.13133085205066    7.23008745773214
H         3.15921002914684    3.06142952918064    8.29740156639810
C         2.10468775370825    2.31298116502082    6.58257830181396
H         1.54871771239142    1.57702086988822    7.14568371580223
C         1.89509018995353    2.42178624918626    5.22665067249589
H         1.21285806856953    1.74496963961513    4.73516509424062
C         2.59363240522173    3.37526083858045    4.45977138057195
C         1.42113855812893    2.97277271660230    2.41326540004305
C         0.10741153939893    2.96479673429786    2.90991912702015
H        -0.09788589805100    3.43684416209691    3.86072066045635
C        -0.92021610869745    2.37847117559680    2.19808346629177
H        -1.92101669051678    2.37728241894400    2.60586374556001
C        -0.67137054324524    1.80455325073855    0.96309247996859
H        -1.47119053015972    1.34079891135496    0.40574489243375
C         0.61015835288993    1.85166753540828    0.43416360139313
H         0.79893399788689    1.42689862625997   -0.54221810683474
C         1.65318054335212    2.43694976820863    1.12599404473057
C         3.02801142136503    2.51299388543816    0.52659589986720
H         2.98306990158097    2.51001045339274   -0.55994958993950
H         3.63104595698346    1.66350964071391    0.85179312040335
H         3.53199647960665    3.44837335891556    0.85735157816944
C         5.78618183230289    4.44688423529152    4.33840626653033
H         6.14890143593732    4.39356593741129    5.37113780589347
H         6.46462692462947    5.07741137200031    3.76759248286637
H         5.79193037573323    3.44367820437418    3.91404192183387
C         4.43897064687916    6.36360891180829    4.80051058170885
H         3.41695624869173    6.71691762480864    4.93038750055024
H         4.96602806939402    7.01189369192787    4.10324274777408
H         4.94997160487746    6.42166722649657    5.76876264287243

