71
CSD_code = IZIYAS | q = 0 | S = 0 | Stoichiometry = C32H33ClN4Ni | MND = 5
Ni        4.38649782538489    5.32485896970285    1.83728668546942
Cl        3.96586790622917    5.34244754888353   -0.25641212778492
N         6.18891476094242    4.47947415580608    1.55120041348228
N         4.72900225350915    5.06810098137991    3.70388566004614
N         2.57993002228118    5.76297249122149    2.13905604457584
N         5.27136187405964    7.52870356677293    1.84065143718505
C         6.85223759864098    4.46668517983042    2.85059093375076
C         8.17284568611527    4.11203066316422    3.02723402097249
H         8.79742882743471    3.86674517825053    2.18077650562752
C         8.72147376258885    4.07140606340874    4.30156129182621
H         9.75974571599853    3.80893117432085    4.43384341828598
C         7.92086109569998    4.35485254928297    5.39708569809171
H         8.33836481330344    4.30675215942252    6.39310076989116
C         6.59546984343158    4.69421011056539    5.23881798988707
H         5.97806757491359    4.89468910670622    6.10237179273791
C         6.02869881830756    4.78154421585747    3.95175390028305
C         3.89752184152920    5.47188033289968    4.74195450948047
C         4.13937886925723    6.67344595406867    5.41907670753861
H         5.01003782317523    7.25275992064538    5.14486836082790
C         3.29010238433422    7.12435282315041    6.40748027282998
H         3.50078463793751    8.05454213329227    6.91626079222160
C         2.16602047901221    6.38633141808115    6.74363386409668
H         1.49747469426194    6.73307742832094    7.51789413863967
C         1.91083679729673    5.19615460874995    6.08872001122166
H         1.05170918995036    4.60465392681159    6.37313595250272
C         2.75989671317402    4.71721264006213    5.09743736077159
C         2.46354102018663    3.43608547580978    4.43760094624943
C         1.15652558916878    3.11687952825937    4.07392354069699
H         0.36152322092504    3.82009261966960    4.27980386144486
C         0.86829428289493    1.92295270377503    3.43976185318617
H        -0.15067396764589    1.69450968878114    3.16045440813335
C         1.88113324617162    1.02142855649266    3.15987760057566
H         1.65835720651865    0.09170399200633    2.65711083272036
C         3.17959521204764    1.31455430504022    3.54080186302821
H         3.97118593475221    0.60429164357105    3.34611066699097
C         3.47024104602924    2.50800907004443    4.17693577503571
H         4.47926623394669    2.70788346484935    4.50357517719810
C         5.87639046062015    3.08732190227958    1.17829373337138
H         6.79561153715442    2.48996896201454    1.13282475258476
H         5.39301237379339    3.06951481610672    0.20093446526641
H         5.20664415600963    2.64764963832769    1.92015169715434
C         7.05159376937703    5.06136856393822    0.51680893464759
H         7.44271992328790    6.01782875177331    0.86092323982484
H         6.47059384766680    5.22091801637899   -0.39102446636441
H         7.88891650986565    4.39738406124965    0.27973148028142
C         2.19683902359773    6.90287108520104    2.70991403305220
H         2.98047628863392    7.56297153965036    3.05703609713716
C         0.86965221859037    7.25263142722118    2.86829150750456
H         0.61990082742116    8.18920642049129    3.34257657121055
C        -0.12874414283442    6.39852360069567    2.41554404865735
C         0.28567388278266    5.21356835458225    1.81609823370566
H        -0.43822084267039    4.50679786136459    1.44105560659034
C         1.63283208066287    4.93144504065008    1.70397036590756
H         1.96023087249837    4.01239767802102    1.23504122003428
C        -1.57873969225537    6.72516042305752    2.55955080646942
H        -1.71720500859679    7.67257689757607    3.07335448946832
H        -2.08653834294768    5.94240768132073    3.12126201251416
H        -2.04878681194226    6.78461781377773    1.57885333816846
C         4.85636457974252    8.35926026834971    0.88671166357815
H         3.98014771249459    8.04837227195046    0.33336289506468
C         5.49239832214894    9.54932262182058    0.58652908664505
H         5.11175650581175   10.18076529229125   -0.20179733343515
C         6.62530772010035    9.92288096441751    1.30312252995973
C         7.05109336591775    9.05601726912831    2.30201151302095
H         7.92208116011333    9.28703255980237    2.89685068920578
C         6.35055945599015    7.88428748185876    2.53114927390590
H         6.67497172972707    7.19824100531729    3.30260402207862
C         7.34950668945485   11.19326160547071    0.99557980688358
H         6.65326478346693   12.02929664907364    0.95987222093881
H         7.82792303167078   11.11936497977626    0.01919238002672
H         8.11355117881831   11.39876014604716    1.74089615517147

