45
CSD_code = IZODUY | q = 0 | S = 0 | Stoichiometry = C23H14CoN7 | MND = 6
Co        2.70144771001483    5.43370053621235    2.61487964576019
C         2.16594812846353    1.09936098187393    1.32265126380385
N         2.04738788035475    5.80243884739090    0.87065642288614
C         2.02541805964019    3.45366919136386    0.87046986380960
C         1.49572603650186   -1.25654496891612    1.79048618382755
H         1.20864799043846   -0.98675701154767    2.79533373837622
C         3.28498314695164    3.28491594842137    4.21731328661646
N         1.65515897351108   -2.94999885252936    0.11927014501999
C         1.99031632410500   -0.29750621666135    0.90735695385134
N         2.49257732740286    3.71791814393614    2.10209205919133
C         3.69129027558996    2.53325527553589    5.31589479378766
H         3.66327023678245    1.45662262800821    5.26444151153412
C         1.36265426672913    7.13253352563586   -0.98543487056675
H         1.21945935467010    8.11903110283176   -1.39475025965610
C         2.64522856980035    1.40538100041436    2.59872040435630
H         2.90793835689805    0.61378100119652    3.28171628082803
C         4.12558650938828    3.17782252461224    6.45609794271521
H         4.44474119612961    2.61497545750444    7.31920055457747
C         1.27366453039734    4.76093121970673   -1.15295122077152
H         1.05883574474683    3.85346073521681   -1.69420108574265
N        -0.11338631090457    5.52914647482506    3.70459992669737
C         2.31140832093338   -0.71329141265878   -0.38416685172747
H         2.72026136472218   -0.01954590801234   -1.10284644468072
C         1.84536214567416    6.99213570778571    0.30033768950287
H         2.08036479696545    7.86161271165279    0.89942004312921
C         0.96322117547774    5.56107701664956    3.31053595969559
C         2.80387070932555    2.73390661764234    2.96219097223361
C         1.85530116382088    2.14394817894158    0.44853608851723
H         1.46632113199623    1.92925068978838   -0.53366849021275
N         3.30450404233504    4.64449773065310    4.23346546484523
C         1.34766475223351   -2.55903181819164    1.34356890069122
H         0.96253749641262   -3.33005844158859    1.99775721799962
C         3.72684596188138    5.25632621262621    5.34195903281159
H         3.73115402104998    6.33790537525740    5.32547367265879
C         4.14132543284651    4.56762570661160    6.46438700127246
H         4.47163317644907    5.11486011942774    7.33194813167664
C         2.12664816343951   -2.04431405430927   -0.71964839204448
H         2.36863312015389   -2.40590625950086   -1.71028129127417
C         1.76342626257861    4.68630683322163    0.14764034271021
N         5.53487958732028    5.49194592860802    1.57035218840540
C         4.46738381118601    5.53649824802630    1.98749397713408
C         1.06891813526654    5.99698285829237   -1.73120439074538
H         0.69004744849844    6.07808858463939   -2.73792732070687
C         2.91378703098052    7.20223540784454    3.14497980460621
N         3.04460644083732    8.29570642155647    3.47195315259020

