82
CSD_code = IZODAC | q = 0 | S = 0 | Stoichiometry = C40H31N6O3PPd | MND = 4
Pd        3.50657044711514    6.51488334009461    6.59810640374690
C         2.29540328811591    5.23363472054513    4.50495395571938
N         1.55420620295129    4.76383718012349    5.48360764112854
N         1.96602788145658    5.26402619439281    6.67837775562262
C         1.34106602070829    4.90125645238739    7.75585913393844
H         0.50956047364933    4.20715263817879    7.63418251442642
C         1.63950490203904    5.32988947699203    9.08383965206141
C         2.67288883368602    6.26240798455308    9.41298843595265
C         2.83519348395276    6.59885400934573   10.77870368297355
H         3.61449388204812    7.31008747808274   11.01254447240043
C         2.05023732848334    6.05635869737263   11.76057093723330
H         2.20842345238261    6.33716060151460   12.79204017675108
C         1.04610741962192    5.14248799238566   11.43511569592798
H         0.42886898934631    4.71455970594101   12.21033312213476
C         0.85317142952139    4.79778702734177   10.12328580494617
H         0.07583751269444    4.09251364134587    9.86219618639667
O         3.47782583304284    6.83348247331880    8.57234960277478
N         3.34357708905349    6.05665156130349    4.68701704227508
N         3.88604939629691    6.35024696917414    3.49158014672370
C         3.20328436946801    5.73180779797764    2.56403598240945
C         3.50679867113188    5.81274923415680    1.15195525149292
C         4.31440239349164    6.86968587692747    0.68310066251377
C         4.54849601614347    6.98849023385220   -0.68463767425402
H         5.15191409170395    7.81648466035333   -1.02182094504594
C         4.03576971154555    6.06614074020890   -1.57385517305771
H         4.23157485086971    6.17492067686391   -2.62989429161492
C         3.28989389434619    4.99299690941932   -1.11006323659721
H         2.90923918731118    4.25399334584273   -1.79737555257851
C         3.03168483401674    4.87003890154110    0.23898860073274
H         2.47530518527755    4.02077574585559    0.60034236860260
O         4.87195460716198    7.78249851382086    1.49908150966965
H         4.68277496552053    7.54075063959342    2.43011784874240
N         2.16704731906336    5.01118560011053    3.14855206667679
N         1.17240267964170    4.40378477137041    2.47521312078319
C         0.29173862585557    3.71045592488688    3.10375426684686
H         0.34479623648615    3.57607281740784    4.18219911459001
C        -0.81450142769279    3.08935828572524    2.42141056467511
C        -1.08513885331278    3.30164896146445    1.05318621600616
C        -2.18691829883482    2.67633305553172    0.47027659442457
H        -2.37442171884942    2.85588207983074   -0.57667162223592
C        -3.00596778110601    1.85373538859787    1.21416915376821
H        -3.85184108150254    1.37503748921906    0.74418957470277
C        -2.74914524390179    1.64173296372194    2.56365878861090
H        -3.39401789633445    1.00046789958239    3.14449309170529
C        -1.66927588722435    2.25712765230936    3.15483075839046
H        -1.46114716400263    2.10119719548578    4.20340616598923
O        -0.32781848198236    4.09530493841651    0.28149936490760
H         0.39141289833733    4.47340046291522    0.82703010563976
P         5.24136445212360    7.94605078855679    6.40710356584995
C         4.90689061296854    9.03987693211431    4.99128437383180
C         5.85820351053094    9.54502003360730    4.11530460982464
H         6.90092535582819    9.29736095768476    4.24659515567356
C         5.46060973545469   10.35153791683244    3.06214774250333
H         6.19795195063855   10.73876810343831    2.37595825846336
C         4.12152312153869   10.65223308658426    2.87978650418843
H         3.81754211973716   11.27520371645153    2.05240023051180
C         3.16691827893574   10.14534336576432    3.74926696001238
H         2.12235408566200   10.37588866854300    3.59919535128346
C         3.55728508973872    9.33863803596603    4.80103803731722
H         2.81935578476108    8.91757254644263    5.49487837801195
C         6.80488575206802    7.08279685124542    6.06854395666073
C         6.72562991543969    5.71103676104984    5.84279985828613
H         5.74623597687727    5.22327254595955    5.88685343016562
C         7.87325341268835    4.98291708408302    5.58638350121559
H         7.81393289422443    3.91908765200652    5.41017385463424
C         9.10339522552844    5.62113960618030    5.56366534741357
H        10.00036599303063    5.05414711100929    5.36352418323320
C         9.18872903817339    6.98201884895175    5.81244476453454
H        10.15188183489028    7.47097435695639    5.81071962540750
C         8.04419502097796    7.71497457873445    6.07022464793359
H         8.10880175060922    8.77179145579633    6.29075418314648
C         5.70454161329128    9.07542116182298    7.75096614698828
C         6.14586398998820    8.49218533404101    8.93635187219907
H         6.21370103207470    7.41398179552352    8.99777622458942
C         6.47194834158909    9.28646426011437   10.01803356338150
H         6.81105197374023    8.83440007462126   10.93861913964808
C         6.35610910585337   10.66537728886068    9.92458453302778
H         6.60808513313055   11.28647283090174   10.77148604523852
C         5.91044220426996   11.24686884423986    8.74959215141796
H         5.81633346602428   12.32082788510015    8.67997504402586
C         5.57905942247659   10.45636573388876    7.66242338332683
H         5.22422223618573   10.90964687950070    6.74702033677114

