32
CSD_code = IZOREV | q = 0 | S = 0 | Stoichiometry = C15H9ClN3O3Re | MND = 6
Re        0.95489565024028    1.17125469750034    3.90009627255063
Cl        0.66731637706860    2.35217893643916    1.85307719102027
O        -0.85957024041720   -1.05096436290257    2.75534971727518
O        -1.47597562750062    2.72865198457391    4.99603735452405
O         1.66695600108936   -0.24798548763697    6.55198730169885
N         2.34732254766411    2.83374350821457    4.18838880416408
N         2.75024890171674    0.53841251812916    2.90897665860248
N         4.59765236725722    1.16675926983172    1.84959174682337
H         5.33682039637931    1.75632208153630    1.50670369474740
C        -0.19444632020694   -0.25738903454389    3.24268496092115
C        -0.58928119514078    2.10288791124401    4.63235889899159
C         1.38289453303989    0.27105011486394    5.56615238533102
C         2.10767093789161    3.95488518231164    4.85608151628527
H         1.24866243576612    3.94694306314695    5.51417726503178
C         2.89218883240253    5.08942005513470    4.73425271019387
H         2.64398674369793    5.97745236106459    5.29227188343935
C         3.98485368190215    5.06192058199728    3.87925008759363
H         4.61053287349235    5.93184544657237    3.75149012717074
C         4.25539102406534    3.89559683575427    3.18990980028529
H         5.09489082051051    3.83626929607313    2.51452192464004
C         3.41387601435269    2.79853073336896    3.36425122315731
C         3.59552464227315    1.53071651570461    2.69619217747538
C         3.19227688362393   -0.52317260378581    2.17140385955612
C         2.67997889728205   -1.81035495013525    2.02966061928701
H         1.78694956753714   -2.10323958236018    2.55855847398151
C         3.35805641129913   -2.67025373070114    1.19446402469624
H         2.98920216982276   -3.67470079052858    1.05525681370715
C         4.51653971319461   -2.27809986080464    0.51529154151646
H         5.01041653510370   -2.98846518745184   -0.12998367807274
C         5.04288434033142   -1.00965853541535    0.64761337846319
H         5.93691159674290   -0.70889274066163    0.12342601532686
C         4.36617248751835   -0.13616422652951    1.48500524961510

