78
CSD_code = IZOROG | q = 0 | S = 0 | Stoichiometry = C22H49P2RhS3Si | MND = 4
Rh        7.27702483525283    1.03621926212624    4.72691777141987
S         8.50020731114670   -0.87932108631629    5.36051038404137
S         6.40448082824830    0.38797206916869    6.81330625580967
S         8.09475871288292   -1.70850548843769    8.16969323861692
P         8.22110053629127    1.39335030836476    2.71026323421128
P         6.07386907070423    2.91561252507308    4.41222112646172
Si        6.65365014669451   -1.08730788504958    9.73508258265244
C         7.28533659758063    2.77667967261651    1.87696087197499
H         7.91241304665107    3.28395163358672    1.13899023820607
H         6.45856201721457    2.30474229715542    1.34626751291829
C         6.73008524594913    3.77484920680532    2.89196920183135
H         5.96140251492980    4.40419002414233    2.43570821783529
H         7.53477704490067    4.42485130966449    3.23520267904492
C        10.03329118801304    1.96174971496296    2.60683540934432
C        10.83738453195647    1.08187029925727    3.56443854038169
H        10.37228344095668    1.09553259511542    4.55103105943040
H        11.85543247988274    1.45877323471240    3.65806980010094
H        10.88560360809940    0.05028780923760    3.23221885515959
C        10.07410207024152    3.38517789508793    3.16372124072057
H         9.63597056539593    4.10359473609062    2.47457620526219
H        11.10656081662007    3.68375878295124    3.34366423917996
H         9.54164139767031    3.41270821144420    4.11112989855421
C        10.65881473354887    1.96405349434861    1.21579885760898
H        10.82308987179580    0.95727357449288    0.84389067739142
H        11.62933992379334    2.45865806365135    1.26365021268590
H        10.04192071892864    2.50980542711158    0.50438766529464
C         7.95724815880721   -0.05343733658200    1.49988343950925
C         8.97234491913028   -1.15773585880409    1.79448904973483
H         9.97305973217179   -0.88646272375033    1.47061146589069
H         8.69051178424750   -2.06749938110453    1.26448842950110
H         8.99075246645794   -1.37954487671120    2.85913772686306
C         6.56637333332815   -0.59857722697575    1.84943102066167
H         6.43619128601915   -0.63095759831615    2.94069937664977
H         6.44684573591898   -1.60971519666829    1.46365115632730
H         5.78276346704652    0.01642928535884    1.41315567909627
C         7.99119589936054    0.29024402359353    0.01067707816138
H         7.29679203071496    1.08796311212176   -0.24040250846609
H         7.69856618899422   -0.59349867278005   -0.55654107736014
H         8.98289791205336    0.58034965858771   -0.31877281434315
C         6.35952385613222    4.22586549407566    5.76748644646417
C         7.83442232720178    4.06050433149817    6.15681520496657
H         8.09586886145613    2.99370425817191    6.20916720292467
H         8.02405469471378    4.50566983356209    7.13242662688962
H         8.48637996449656    4.55117364590892    5.43820533454102
C         5.51677758917380    3.88135465531223    6.99571998041205
H         4.46346946883054    4.09398613254536    6.83706805260674
H         5.84743634780411    4.47381235263893    7.84898410439273
H         5.63247053915961    2.82903079068749    7.24625108962871
C         6.11447226583124    5.68124982316050    5.36998235024283
H         6.69142121842842    5.96716519470086    4.49433178867658
H         6.42352336753966    6.32456745813735    6.19406271972304
H         5.06673711897088    5.87858257802937    5.17107349538572
C         4.20645177905799    2.78160558914923    4.07246270401610
C         3.62867838236513    1.79700240240658    5.08985922867138
H         4.21302204381838    0.87596621759886    5.07614618809143
H         2.59702406594473    1.55529834609373    4.83602180630004
H         3.64602467712661    2.19236365863119    6.10002893879280
C         3.42331391959879    4.09029362631698    4.07768453009635
H         3.33569568832039    4.50655138099713    5.07681600378240
H         2.41401280097734    3.90148590321114    3.71099955901100
H         3.88184616961921    4.82964514577763    3.42390768077183
C         4.06982734739825    2.13220039508258    2.69506002443692
H         4.33550561282651    2.81899645285621    1.89479532819363
H         3.03972042120121    1.81564002841712    2.53358579487420
H         4.70790056751266    1.25272576499995    2.65213526002744
C         7.66028463279742   -0.73222061139027    6.80348946345890
C         6.93483046903881    0.74323872592126   10.17867155800931
H         7.98323896981242    0.93590570192054   10.39283226076730
H         6.36018135739588    1.00862114949662   11.06075926350181
H         6.63423307679921    1.40590159961523    9.37339192056742
C         7.20135583716548   -2.20726108661120   11.16920005739994
H         7.12496570969096   -3.25757242345071   10.90577321466211
H         6.57722152528495   -2.03543505778690   12.03930786234821
H         8.23123313834855   -2.01605127122446   11.45399235293577
C         4.88135345286940   -1.52195819209566    9.19309915050423
H         4.53058236058526   -0.87430359127379    8.39583343390081
H         4.19698958422153   -1.42183640550691   10.02995618945688
H         4.82350262088522   -2.54735489290166    8.83620183020655

