94
CSD_code = IZOSAT | q = 0 | S = 0 | Stoichiometry = C26H58NO2P2RhS2Si2 | MND = 4
Rh        5.81046355970457    4.32242146709919    9.11642775173591
P         7.29785601605104    5.99725398458851    8.72841510721176
P         7.26793534233273    2.92866514879315    8.06752952426692
S         4.01520223130363    5.77576920284673    9.28161488022644
Si        0.02703344685158    4.68339316787713    9.76359018347170
S         4.82417282509441    2.59601064129626   10.29244906003782
Si        4.61026700783380    2.04269951261012   13.39666261962022
O         1.51554294819855    5.31182769549350    9.34053290834408
O         3.46522053843320    2.83053003654807   12.48324908880614
N         2.66327815744446    4.05959038857308   10.81483614939018
C         2.67346068460716    4.93012955888179    9.84387855130295
C         5.05330812022995    2.13540303056730    6.60857939153580
H         4.99986945211381    1.16742481389147    7.09608395687541
H         4.51099713219671    2.07546088005426    5.66534380740090
H         4.55266068384254    2.86988621368926    7.24903149107371
C         6.49538705949517    2.58381806733093    6.36043734853765
C         8.12368485120574    6.35453567553612   10.40910771274241
C         8.34332835722735    1.54619060298988   10.20594119831178
H         9.17871552834124    2.23584586151690   10.29810596879412
H         8.63070102879917    0.61199150743586   10.68675089836922
H         7.48309528084756    1.94922750875096   10.73654069919752
C         6.94545509176964    7.66665144978212    7.87165923919695
C         3.59893220100005    3.25994848709861   11.24167037890919
C         8.84661931214019    3.84364519201270    7.68116878109469
H         9.54488371353263    3.56030359297076    8.46924419447238
H         9.25692581694137    3.48757476681949    6.73252225739956
C         6.04915131599662    7.35131562784072    6.67110920863504
H         6.58484951352741    6.79850899235781    5.90316324632654
H         5.69208329024382    8.27780435127388    6.22361645997422
H         5.18245094628828    6.77667699272296    6.99322266158349
C         8.17936556670635    8.41822396067039    7.36816951022421
H         8.86970922992117    8.66227339854442    8.16716221931362
H         7.85134537850599    9.35383718329479    6.91537586895553
H         8.71481931264569    7.85735346303093    6.60679333909074
C         6.89450688239083    0.21223889059571    8.72284806407375
H         5.97704121615698    0.60260833740570    9.15672409665364
H         7.21453689229914   -0.64368779235505    9.31700122644745
H         6.69215423118978   -0.14331418741157    7.71684584980642
C         7.98100688441808    1.28769293284823    8.74064019091144
C        -0.02443867276605    2.82103491694989    9.36534604027774
H         0.26894941028013    2.62883698444736    8.33628494894555
H        -1.01839135888595    2.40940700258555    9.50741500826292
H         0.65690184295634    2.27073993842072   10.00818664746127
C         8.69120475705934    5.36256920648412    7.66213191376174
H         8.44888520365735    5.68901953874226    6.65050389585664
H         9.62734373508744    5.84797863629358    7.95048004364684
C         6.19095600237733    3.11013333088399   13.46310975426369
H         6.45206995797863    3.47517967829033   12.47228381104080
H         7.04250835327377    2.55498910117119   13.84267278172119
H         6.04946792491087    3.97801391831003   14.10223790650864
C         6.14587555192515    8.56584432687582    8.81429762003214
H         5.31107629444216    8.01249462049110    9.23730933686213
H         5.74289568580719    9.41241943802317    8.25901380568757
H         6.76141088505426    8.96195059963996    9.61672993230057
C         9.22767065902041    0.77026091434988    8.02059056538741
H         9.04841846112496    0.58014122220238    6.96893713424956
H         9.52709885065293   -0.17087506665736    8.48183211899967
H        10.06344255910753    1.45888688432214    8.11077782619259
C         6.42417442979479    3.94103287017265    5.66055160020424
H         6.00892678640828    4.67490074556266    6.35304155050848
H         5.77112698363332    3.87996868235996    4.79062447205312
H         7.40376220642251    4.26771224800278    5.31975301581005
C         9.13977056578517    7.49061690075088   10.47348162519042
H         9.91987944276459    7.37002409783193    9.72418977269144
H         9.61835302862673    7.47724043325266   11.45322105155860
H         8.67506353441147    8.46421790802360   10.35074667620706
C        -1.10188384059848    5.68808110162486    8.61454006023653
H        -1.01545318277016    6.75317013916394    8.80341654989649
H        -2.13756325144590    5.40669097870583    8.76816092572036
H        -0.86351029390043    5.52067488458428    7.56912450125286
C         4.97127055530851    0.28108401812579   12.76350866050030
H         4.05123312147894   -0.22490580806099   12.48168902753087
H         5.45137488928706   -0.31513111894961   13.53313569714864
H         5.61925959657470    0.28613292562879   11.89227171945918
C         7.21557320058818    1.60293026069529    5.44034458640438
H         8.25687507840549    1.88485594328264    5.29612670049082
H         6.73138458834595    1.61980655244262    4.46344991472570
H         7.16952877506976    0.58276760990129    5.80927862236107
C        -0.33908434672373    5.00635331667070   11.60251555709616
H         0.38170933022506    4.49372477445008   12.23266528115580
H        -1.33034587938509    4.66024120524835   11.87709671756715
H        -0.28298536238308    6.06674722658559   11.83427039623287
C         8.82644671420341    5.05420390171015   10.80122980491628
H         8.14693791757676    4.21786567467233   10.62865580130074
H         9.09288941490646    5.07319548252028   11.85738408247980
H         9.73923049475887    4.90664747500100   10.22899026213239
C         6.99714609367535    6.58193423259622   11.41976501868020
H         6.48069589348909    7.52171647906288   11.25538645062051
H         7.39559831613493    6.58239974138016   12.43392008714153
H         6.26418024949131    5.77295255244400   11.33408303715409
C         3.72250321291453    1.98535187462740   15.06928012352317
H         3.44688990820844    2.97496966613074   15.41703838097452
H         4.37266167102685    1.53941724113091   15.81261279690869
H         2.81761700618783    1.38975198525668   15.02046329062389

