47
CSD_code = IZOTEX | q = 0 | S = 0 | Stoichiometry = C26H16AuF2NS | MND = 4
C        -9.95152630853639   15.38157183818609   12.66370979724833
C        -9.26237072500096   14.26252934888017   12.24451118690668
C        -8.53520697657330   14.27404306199215   11.02357409195364
N        -8.59813712759378   15.45254227671844   10.36227443909692
C        -7.80331118566701   13.20111916326897   10.50117052809644
H        -7.77190129013430   12.27409994103436   11.05203601426970
C        -7.14556342852278   13.35705813490168    9.30259866001335
H        -6.57574325157083   12.54249478052701    8.88162643699163
C        -7.22333418853772   14.57943609952730    8.63723878820531
H        -6.72068278992281   14.73565826218336    7.69722238124568
C        -7.96085560354515   15.59640914108472    9.20588202168221
H        -8.05863533645146   16.56635790148675    8.73820311893827
C       -10.59082936495290   15.14605335821803   13.89376910401539
H       -11.17998951399166   15.89042057472912   14.40075194953618
C       -10.39647454871698   13.88861149604353   14.39576279949887
C        -9.48365518048929   18.25622453009925   10.02545784456826
C        -9.30555678118001   19.12385057660758    9.20358815876133
C       -10.82188735813365   18.04856095982434   12.35612698067976
C       -11.52084054711031   18.78670841003390   13.00265450899131
C        -9.08805891596884   20.13710454491134    8.23681549572387
C        -8.27897385312548   19.89950537379331    7.12485328825269
H        -7.81732932603107   18.93100653194801    6.99680410511567
C        -8.06491953591754   20.89340075977126    6.18999683579019
H        -7.44221377012848   20.72760684115559    5.32473476082818
C        -9.47513173252948   22.38812615041277    7.46917825922369
H        -9.92672081043085   23.36169787074278    7.57829995674618
C        -9.68421608137898   21.38900447561911    8.39858652489508
H       -10.31112882814319   21.56608331821116    9.25954508863206
C       -12.33793456890771   19.64920369220407   13.77506251825806
C       -13.21951885887043   19.12027571518860   14.71870981160576
H       -13.27776532545455   18.04999308421627   14.84956058986059
C       -14.01492730006389   19.95620181024078   15.47758182702866
H       -14.70211676023913   19.56604489332221   16.21210418284542
C       -13.91967000363537   21.32286393214827   15.28308254740318
C       -13.05528689575811   21.87418053451449   14.35342427395319
H       -13.01273874078687   22.94531357363759   14.23241130595728
C       -12.26328977738451   21.03151041362683   13.59853233816270
H       -11.57933068425600   21.43405434945039   12.86685857286616
C        -8.66645444968444   22.12477838610057    6.37766166519011
S        -9.40032785339033   12.92547077550298   13.35546448012329
F        -8.45717983103355   23.10112037316322    5.46563588425667
F       -14.69522854837108   22.14447352983807   16.02436204535192
Au       -9.74470623681505   16.86522690201260   11.34972787377843
C       -10.92805911072004   13.31878556301374   15.65973943688813
H       -11.48698171178438   14.07750528118239   16.20215445737834
H       -10.11639652081569   12.95808367383772   16.29111210008816
H       -11.58749246151532   12.47542779477024   15.45364096322971

