44
CSD_code = IZOTUN | q = 0 | S = 0 | Stoichiometry = C25H14AuF2NS | MND = 4
N         6.11795297194593    0.48040917643415    4.67941519306786
C         6.18699788649091   -0.13838139232674    5.85259842484783
H         5.50444028568101    0.21983816888539    6.61095539796034
C         7.06974407320424   -1.17123124394076    6.09131089961669
H         7.09448826223050   -1.64794366044203    7.05715646597785
C         7.91812163249325   -1.57716985520027    5.06360061882271
H         8.62045969818449   -2.38164657917080    5.22119100845264
C         7.84950808412717   -0.94040287675849    3.84457896946471
H         8.48518926338732   -1.22005057708533    3.01914733566110
C         6.93051176024042    0.09934010391096    3.66890771761600
C         6.74520456681815    0.84432741023651    2.46958325644463
C         5.80673254762253    1.85370300861558    2.40614728504452
C         5.79472839073738    2.44597814097849    1.12845507665182
H         5.13722085543092    3.25290208575715    0.85635970276534
C         6.69769773024052    1.89292695421712    0.26902691025064
H         6.88717870452062    2.15824081220817   -0.75337664883416
C         3.80555116147255    3.48819888346924    3.54569384752492
C         3.14331313862854    4.40933483581715    3.13978782742350
C         2.37356551660491    5.49175477749644    2.64662754591317
C         0.99486613140017    5.52909859837618    2.85835325846208
H         0.52211385644265    4.72776621171881    3.40565757929756
C         0.24367382197479    6.58105746848671    2.37211611033634
H        -0.82316089306554    6.62828301948714    2.52503461120579
C         0.88283480353202    7.59211324586244    1.67606405333586
C         2.24857304818117    7.58061951708653    1.45349602200782
H         2.70925849454280    8.38865440974661    0.90697139912591
C         2.99295080577625    6.52455872028623    1.94124682627653
H         4.06059029544744    6.49272813407570    1.78266850331611
C         4.02981593922767    2.16939951295226    5.89708447377016
C         3.54440264517387    2.20527119351598    7.00288815137028
C         2.99124627422104    2.22212475425646    8.30786347433199
C         3.82657339221602    2.15693739127464    9.42439588074752
H         4.89693681659802    2.10506410865401    9.28574300933300
C         3.29325480708944    2.16463648331168   10.69823685374899
H         3.92374733042440    2.11668139027250   11.57245403450645
C         1.91931890898618    2.23608462314184   10.84445671595610
C         1.06768187470298    2.30270430265124    9.75580919337124
H         0.00179326638312    2.35922195091946    9.91263790582963
C         1.60887222362423    2.29593402110093    8.48541835954297
H         0.96690084184825    2.34817597585106    7.61881565181965
F         1.39320460051603    2.23993886055824   12.09025475307132
F         0.15085549642022    8.62268359948726    1.19839445823534
S         7.60851066007062    0.62178513677199    0.97293126790324
Au        4.87147802816721    2.05194919726407    4.15614061842312

