141
CSD_code = IZOVOJ | q = -1 | S = 0 | Stoichiometry = C54H72P2S6Si6V(1-) | MND = 8
V         3.70285649688082    2.89286930109764    5.35277910324936
P         2.41239905715323    4.78985811272096    4.99313319638186
P         4.75607909311406    1.53354519492518    6.91383699814300
S         2.15269989658657    2.27749363496898    3.69332354789059
S         4.50336017488877    4.67315797616809    3.48800720434522
S         2.10983299813583    2.65223544656936    7.14345585340637
S         5.77562495717091    2.33631072274185    4.38806783544626
S         3.29853691837245    0.22871993115837    5.23502173540727
S         4.66127752807481    4.57454243655668    6.78444078660428
Si        0.93355588674070    1.72778690243493    0.73856054732111
Si        7.00927487901109    6.87994356451158    3.31188508956918
Si        0.47634572407504    3.04981651335457    9.86912297398212
Si        7.94602145456965    0.75399208651410    2.56967740821313
Si        0.67437198049484   -1.72583182838622    5.91529515008802
Si        5.26233073685122    6.50876809988956    9.26437072064825
C         1.44966303993252    3.59858475460152    2.81638630996452
C         0.85471841843594    3.42965078365265    1.56534591186413
C         0.31188649458140    4.56256708384619    0.96945298841771
H        -0.15780425473264    4.46582569182318    0.00099649325595
C         0.37226827646707    5.81220870312792    1.56609750191815
H        -0.04815363147616    6.67200286223558    1.06193122049290
C         0.99096933832638    5.97181148107431    2.79636679866858
H         1.08571642875204    6.95071490520245    3.24769046697765
C         1.51389569473131    4.85455467732383    3.42316540798876
C         4.38777844977702    6.24895540656718    4.20631158963827
C         5.31982342589649    7.27401996963711    4.06715767753442
C         5.00572233266376    8.48334384505843    4.68216791565496
H         5.69772425231366    9.30781890600586    4.58545285679416
C         3.85766504277187    8.65394467421285    5.43837448686348
H         3.66036429928896    9.60763424839381    5.90917292833338
C         2.97843904250073    7.59837057781771    5.63720663428059
H         2.11852050507669    7.71026318503508    6.28207318227170
C         3.23540714888313    6.40503353524785    4.99118401509048
C         1.11866297414885    4.06796261122377    7.28450634039053
C         0.29918814703289    4.24270299200011    8.40906082644149
C        -0.57814901661487    5.31750019947122    8.39946400546791
H        -1.22056116796822    5.47183533774439    9.25429145580803
C        -0.66616628934037    6.18760558268851    7.32256564808403
H        -1.38795250105653    6.99316487708691    7.33310446810461
C         0.18867066918596    6.03977570401744    6.24480270520320
H         0.13988876502626    6.71657951358533    5.40277284395524
C         1.10722469998418    4.99887412467787    6.24264412867637
C        -0.00472199217374    0.39545390139795    1.73084333378873
H         0.53480753629634    0.15318246299995    2.63972087117876
H        -0.11514698438880   -0.51840839937123    1.15354337548219
H        -0.99815161208525    0.73177122960303    2.01500009474184
C         2.75176209468944    1.22253290851046    0.46878925109992
H         3.31065110632535    1.99941350852254   -0.04615583562845
H         2.83588131402393    0.30841310956297   -0.11212203332205
H         3.23552473161058    1.05241055723590    1.42556845069155
C         0.09282865252140    1.86506408452062   -0.97476769157863
H         0.58907833313683    2.58894337767560   -1.61236872663264
H        -0.94975015460615    2.15308417542367   -0.88942383770871
H         0.12534183368030    0.90695265268340   -1.48236879537768
C         7.85869475280562    5.65072603468352    4.49588508914170
H         7.22428640994423    4.78182382646461    4.65275535496041
H         8.03550321096844    6.10038621539588    5.46965284803029
H         8.81181952741142    5.30041166664533    4.11073032798990
C         6.89882982534527    6.21163572282082    1.52840750021103
H         6.31746069261285    5.29624478058722    1.50320319402547
H         7.88613519438649    5.99324534501533    1.13111211890836
H         6.42157682105345    6.92479938021002    0.86192124832354
C         8.04268337570340    8.48921098883701    3.25635165091893
H         8.20844526829879    8.89358775281611    4.24922989965203
H         7.56163622949409    9.25656939918109    2.65866114409505
H         9.01528225463251    8.29500901870569    2.81676035617947
C         2.26049810464100    3.07103115865856   10.54641060307522
H         2.41046972755329    2.28567206457291   11.28156362639517
H         2.50150616315001    4.01976830452922   11.01814713232189
H         2.97721781029269    2.91441239811975    9.74685994947806
C        -0.65848391807371    3.66969694311470   11.28100025220350
H        -0.55395916059282    3.02885868073027   12.14997214887610
H        -1.70421830734404    3.65740194242551   10.99247179964036
H        -0.40820791190759    4.67956125298821   11.58858664323427
C        -0.11723813615239    1.29513205358805    9.41150498445542
H        -0.02155652715873    0.61502867951762   10.25287703994736
H         0.47156784019497    0.89207142066077    8.59488308135295
H        -1.15906313101557    1.29749244430189    9.10215229491133
C         6.52721735638048    0.91006614981490    5.02835763359060
C         7.51162748025689    0.20892425584366    4.33040070585450
C         8.05082225441326   -0.90905603825573    4.95711018392770
H         8.81775615800520   -1.47249582684663    4.44501175212630
C         7.62312833532913   -1.33488813897226    6.20489338739583
H         8.05686016902772   -2.21946534801269    6.65167648477576
C         6.62381277845059   -0.64653022708095    6.87524787077819
H         6.24913101406170   -0.99867208958263    7.82737370752997
C         6.09205859314170    0.48672445139761    6.28577207334909
C         2.94604535191371   -0.30124945655062    6.84984497376935
C         1.96584019029962   -1.22439505667039    7.20426412837057
C         1.89001396691312   -1.55797651421635    8.55428790880383
H         1.15193146584355   -2.28264250809285    8.86749417791535
C         2.70276539991216   -0.96985532856954    9.50962517968000
H         2.60059562893167   -1.25037666720215   10.54933592690513
C         3.61642062100298    0.01263409271344    9.15334595533101
H         4.20039188262333    0.52255860831537    9.90622997358995
C         3.75393224227199    0.32024658025051    7.81398481989450
C         5.33974867492722    3.86087799467863    8.21158735537059
C         5.72299909935529    4.67216820952997    9.28937572910516
C         6.39266107061416    4.06319426003484   10.34086239122889
H         6.69872532315624    4.66779173810689   11.18231323951456
C         6.69304328510672    2.70877706439299   10.33778223089251
H         7.24964160802457    2.27426877411115   11.15717067146848
C         6.25775323993515    1.90815613336031    9.29683653388847
H         6.47555745689590    0.84899706098831    9.28464492505628
C         5.54843788706401    2.48005260342396    8.24950720391342
C         8.68121366912257    2.51373515668792    2.51598441158224
H         9.45275707553214    2.64841346410057    3.26927206898260
H         7.90764194575172    3.25097994623005    2.70064376319433
H         9.12208090255272    2.72619316661260    1.54582949128276
C         9.27240635537977   -0.44628924224658    1.89096575401809
H         8.91685732911435   -1.47094328548600    1.86715877111445
H        10.17999771375645   -0.42046510397933    2.48494936136195
H         9.53911921530801   -0.16996539205344    0.87649883676807
C         6.40276815870833    0.62535255484730    1.45777822513711
H         5.94950900131589   -0.36072186459525    1.51579955819433
H         6.63773489051278    0.82585997502092    0.41628517958759
H         5.65634637770909    1.34754493550996    1.77408018914991
C         1.43182936034930   -2.54225328139710    4.36631249378022
H         2.12573827549150   -1.86325937547705    3.88251100557232
H         0.66091606868107   -2.80280998751640    3.64661230385137
H         1.97575104906334   -3.44923161223246    4.61536363586906
C        -0.51662983798083   -2.99569295141297    6.70856236276699
H        -1.26753897176825   -3.30445385886054    5.98912849276265
H        -1.03663410530244   -2.57766921829720    7.56392001762539
H         0.00644797601779   -3.88757391066192    7.03791842034443
C        -0.30800408976545   -0.14738012049829    5.49368711632632
H         0.36828701664724    0.63866168729440    5.16643510104385
H        -0.84209255655714    0.22867451587906    6.36258718923004
H        -1.03193734034200   -0.31306964423330    4.70122110474491
C         3.37180180089222    6.72885282818871    9.12341652616224
H         3.10917664702049    7.76875567202697    8.95213825262937
H         2.85875541795987    6.39903713515559   10.02269533431434
H         2.97861661957350    6.14968824886942    8.29428685856709
C         5.78530937738510    7.27271132201814   10.94008928471085
H         5.49750651442951    8.31789187329281   10.97826178170978
H         6.85928669737029    7.22616387947296   11.08623408074624
H         5.31179618867899    6.77331579578023   11.77878718049018
C         6.21749540029230    7.44774184386692    7.90540075374218
H         5.95899475059202    8.50263207894628    7.89922893340194
H         5.98324280280426    7.04651782611655    6.92549423567990
H         7.29176442787851    7.36891479409928    8.04994109557867

