85
CSD_code = IZUDOX | q = 0 | S = 0 | Stoichiometry = C38H44Cl2Hf | MND = 12
Hf       -1.47417191554612   -1.83620723588420    5.99803583652811
Cl       -0.62018383426810   -0.83140458160043    7.88660496687183
Cl       -2.77534372514173    0.00353294193122    5.52753019970507
C        -3.22923040419735   -3.30289319640810    5.25153282237871
C        -3.68664199520578   -2.89352084876927    6.53164830416246
H        -4.63900575874767   -2.41390207151334    6.70778256780990
C        -2.79329637428075   -3.36057943108754    7.52616592908239
C        -1.75567738363572   -4.05340556788267    6.84984479716182
H        -0.97686287775404   -4.63569296044614    7.32201707632505
C        -2.04361051694691   -4.06516307925750    5.45034966052705
C        -0.93735998965594   -4.34876780095182    4.44562283237159
H        -0.24787994673922   -5.07871361066847    4.89730150820751
C        -0.23289845120646   -3.00465980123879    4.39571494321200
C         0.75126562346621   -2.60308883068127    5.36196928787263
C         1.50525411683883   -3.31336655062956    6.31490783237525
H         1.40709671367759   -4.38723273235731    6.40948102628204
C         2.41554733430099   -2.64272696628678    7.09882779643953
H         2.97279081723676   -3.21679316572664    7.82004055860123
C         2.64398598666042   -1.26037067975349    6.98719259365711
C         1.92423522776545   -0.54679592745283    6.04329850569876
H         2.07985641913222    0.51435519431529    5.91757555578577
C         0.97286962323899   -1.18273359644735    5.24783914381095
C         0.08850709213838   -0.69010469299446    4.22556365558185
C        -0.09944392107005    0.59681164559542    3.71385537554845
H         0.47196241700251    1.40543980176991    4.14099843744679
C        -0.99822450962597    0.81411296081720    2.68852439092529
C        -1.66765887974549   -0.29809163290948    2.14036950276612
H        -2.33992761329783   -0.14591782309619    1.31019034630076
C        -1.50495411084372   -1.57893390298931    2.60570247788652
H        -2.00563822317839   -2.39790858330263    2.11168813000444
C        -0.64363518155728   -1.81662551180970    3.69557075418255
C        -4.02549621881526   -3.06093499122291    3.99890446458727
H        -5.05394934644506   -3.39110737129026    4.15113550112745
H        -3.61973064016812   -3.60759123713805    3.15328488717651
H        -4.05313263601671   -1.99619656543041    3.75823199842493
C        -3.04598369473089   -3.31245157414926    9.01778621560794
C        -1.75479016355367   -3.56714125450377    9.80164797199526
H        -1.94475725398280   -3.46556757413344   10.86748055373051
H        -0.98869327881976   -2.84868216005954    9.51847837514970
H        -1.38320942939789   -4.57340688406666    9.62285518367332
C        -4.06864215117708   -4.40790747140349    9.36225781919523
H        -4.99948856993550   -4.24553255085962    8.82475611785109
H        -4.27787065960438   -4.40212138457906   10.42926015119286
H        -3.68262901011003   -5.38736160765699    9.08917111365506
C        -3.61657066901779   -1.94236106376857    9.40483547289983
H        -4.59970144002269   -1.79017089639220    8.96705067754764
H        -2.95690466364181   -1.14557266930426    9.06409419465988
H        -3.71446924398731   -1.87109588584231   10.48547910018909
C        -1.35996020574005   -4.93180525916871    3.11987868160784
C        -0.64432048006892   -4.65427286350748    1.96249619340026
H         0.20189267426082   -3.98440997826054    2.00508303678916
C        -1.01120585758526   -5.22955457136680    0.75839738379702
H        -0.45210496010007   -5.00045594678405   -0.13671245942734
C        -2.08865602141260   -6.09674911622706    0.70038657623757
H        -2.37572747627105   -6.54317645304078   -0.24005635890660
C        -2.79205659850545   -6.39593462065810    1.85519056808415
H        -3.62714256048758   -7.07976502917123    1.81895951865210
C        -2.42667956760419   -5.82088001547660    3.05911745298476
H        -2.97305697983704   -6.05629587712211    3.96108502071856
C         3.64531276199053   -0.52661921784636    7.86522948659658
C         4.74902882513044    0.06769551820932    6.97857987623986
H         4.33995959337615    0.76389264235981    6.25163558926356
H         5.26580581695203   -0.72339046108952    6.43881428108616
H         5.47441106985352    0.59982260192321    7.59017074615732
C         4.30432160574307   -1.43824974314475    8.90371195679868
H         3.55974005875012   -1.87484520739218    9.56511830537867
H         4.99190441352771   -0.85361546784872    9.51163343138944
H         4.87433753691184   -2.23296721213924    8.42746164847327
C         2.91446099604506    0.59623218771155    8.61567467865335
H         2.07256335306868    0.18868580250643    9.17031624981184
H         2.53276368099946    1.34883497598119    7.93203665984277
H         3.59108068305402    1.08428757078873    9.31384567764587
C        -1.29612588458975    2.19566992678099    2.13170835380782
C        -0.91096418553516    2.24502343429931    0.64653278855685
H         0.15143926076795    2.04236752084072    0.52634030547818
H        -1.12293677545856    3.23105684973997    0.23865919211957
H        -1.46485352429933    1.51146133542329    0.06721121864921
C        -0.52803180554641    3.29891246269839    2.86401918468161
H         0.54655245033060    3.17160224393813    2.75230659716301
H        -0.78163914870200    3.30920209680501    3.92127740148023
H        -0.79526066472321    4.26646273964429    2.44396324669306
C        -2.79775100112191    2.47135497456641    2.29695626854418
H        -3.08628307093883    2.34273844731429    3.33777037425836
H        -3.39545727042164    1.79410875857266    1.69329926322569
H        -3.02816743120133    3.49032632965821    1.99334498989548

