85
CSD_code = IZUDUD | q = 0 | S = 0 | Stoichiometry = C38H44Cl2Zr | MND = 12
Zr        5.88745578580094    3.49164597515162    8.68343749457031
Cl        6.01887395830148    1.62129892397942   10.07157808392475
C         5.91861475453282    4.58157295213071    5.81128668541722
H         6.03284125699001    5.66636140693566    5.67114466841015
Cl        6.00765991922621    4.87173892661988   10.56384929361577
C         4.73550091481090    4.29858061840805    6.72322968008146
C         4.30274734331689    5.13428691010423    7.78533282091121
C         4.50261579149330    6.61601424719324    7.94599438231589
H         3.55194841295638    7.09215001597933    8.18893434126737
H         4.87822455499242    7.06576068450550    7.02852666801587
H         5.19897629478153    6.83063859057560    8.76164214986580
C         3.52899427068651    4.34004643952788    8.67086029960480
H         2.97880360074227    4.73130106353683    9.51773133579013
C         3.48956056783623    3.00859221918777    8.18206526491346
C         3.22473372896532    0.52586748280350    8.32562704697757
H         4.26793843389509    0.45547008838376    8.63683761612448
H         3.16512421186442    0.37568416941162    7.24973697058346
H         2.66692107651639   -0.27538095200686    8.80505406321124
C         2.54936375758788    1.98363839593388   10.25262759630732
H         3.54873242300624    2.02568648845107   10.68887741489896
H         2.03275899093488    1.11528789551274   10.65530723556082
H         1.99843409084139    2.87127076333405   10.55536034121795
C         1.22267214768439    2.01926391534537    8.12450617164398
H         0.78456177761438    2.97727026122317    8.39415948604183
H         0.57860551164699    1.22547257687642    8.49533839101656
H         1.26346120955517    1.95565978582769    7.03945791516690
C         2.63241396571821    1.88446618826565    8.72362238794443
C         4.25289189204424    2.98134899045256    6.98505079345548
H         4.31215087304665    2.14931142701995    6.29631126882386
C         5.82050701848553    3.95341833265445    4.44116169651959
C         4.58419029681191    3.74905643442013    3.84201394432008
H         3.68414835177572    4.02703911205024    4.37124506456898
C         4.50228129490661    3.19551666672184    2.57631611644282
H         3.53512176194997    3.03748735058199    2.12192078894279
C         5.65471421878164    2.84687131275125    1.89310411625661
H         5.58984782742661    2.41270076460942    0.90646707214630
C         6.89115838034053    3.06225570005985    2.47847802463666
H         7.79433282504353    2.79841618496204    1.94830109313377
C         6.97399803224613    3.61515926952566    3.74345356546766
H         7.93878628047136    3.78130697780980    4.20070050520770
C         7.07235369987158    4.06479137350991    6.65689689445232
C         7.35600466074967    2.68290655266028    6.91855869801180
C         6.97146567613962    1.47632021456973    6.29303738275039
H         6.39251194060353    1.49010065864358    5.37856542490545
C         7.39138857233644    0.28029076924430    6.82017375927700
H         7.07402496531700   -0.62686649199568    6.32875438828461
C         8.22266385810789    0.18376298823036    7.95659648607140
C         9.46194436025515   -1.13150608760610    9.73412107790492
H        10.40972248677519   -0.64363306987136    9.51711891044691
H         9.67568673076522   -2.14108702936653   10.07898862871705
H         8.95829353640188   -0.60118989718508   10.53853478937713
C         8.57377817992845   -1.19536032852077    8.48910250610900
C         9.31203837651866   -2.00022536895988    7.41098171143066
H        10.23133031049029   -1.49241802753805    7.12628656233204
H         8.70343180191354   -2.12735583938298    6.52004450573665
H         9.56645397525057   -2.98706542056764    7.79160448218062
C         7.26477798867936   -1.89986581635265    8.87619248756458
H         6.63458014014617   -2.07385096278079    8.00827154635289
H         6.71151521394090   -1.28454365472145    9.58250391369551
H         7.47766129559286   -2.86007781944098    9.34082187468370
C         8.64755741692781    1.34954506840112    8.56078220498066
H         9.30183433282284    1.33209959374547    9.41911989332747
C         8.20603486806540    2.59047029635557    8.08492191772521
C         8.41761473215301    3.92848437961516    8.57261900465879
C         9.12250727564839    4.41777367935689    9.68001193151088
H         9.62328588388116    3.70999905317017   10.32375838509992
C         9.16285302149057    5.77447116746767    9.93107780039321
C         9.85416715857901    6.36663630158639   11.14790534399673
C        11.00519936056439    7.27437244418940   10.69199870726874
H        11.73524395399533    6.70047577782509   10.12459964899346
H        11.50308292553476    7.70830411525830   11.55647740933237
H        10.64700386354480    8.08504811019116   10.06332607054027
C         8.82368045401632    7.17961097416389   11.94520190993694
H         7.95548951782679    6.56259086692256   12.16511482070630
H         8.48784044017609    8.05123216723290   11.39048111480574
H         9.25752462166046    7.52091019244069   12.88262074504181
C        10.42702671255106    5.29060103670760   12.07408965023534
H         9.63993902009402    4.62965050340510   12.42922722321885
H        10.88588067676010    5.76416700933579   12.93963661891689
H        11.19184637990975    4.70291154447264   11.57094743477734
C         8.52639911484607    6.64820636127302    9.02280927721250
H         8.58817534295984    7.71189584616989    9.19432013706102
C         7.82775344835629    6.21157292065507    7.92605239639220
H         7.39129721173771    6.92787935885532    7.24210037365702
C         7.72386669047985    4.82772993180236    7.67899409463623

