70
CSD_code = IZUFUF | q = 1 | S = 0 | Stoichiometry = C32H30Cl2N5Ru(1+) | MND = 9
Ru        5.15569945358393    9.46895152221317   21.99854815186141
Cl        2.01438535793804   10.04592616163790   13.94562783550040
Cl        3.51324017958004   11.10510327343974   21.54800100081877
N         3.04633785904902    5.52076905702135   17.11285628524376
H         2.89467636708510    5.40575533328877   16.12448395479868
N         2.98292695012794    8.75265597727229   19.59516891889065
H         2.95385034350392    9.55354699419660   20.24251031485647
N         3.41085519795742    7.26342058908202   21.36343564285762
N         3.66984247434016    8.17568343471155   22.26866910421475
N         4.63757592042351    9.82380084742090   23.88847758187314
C         3.87422452279829    2.85870762222546   20.12761633974411
H         4.09069232306849    2.18925061761512   20.94587303768770
C         3.74353409682919    2.33117224961450   18.84062307774409
H         3.86158552936548    1.26889000159416   18.69417160575376
C         3.46473996800072    3.13690236705721   17.75513947363391
H         3.36191807817466    2.72588359811639   16.76302865643500
C         3.31822330297526    4.49619763115386   17.99001610316902
C         2.98758267292262    6.69229181277910   17.79153245257156
C         2.74682166505617    8.00993571178049   17.30136263438675
C         2.51697093052095    8.33541291984725   15.96002927001890
H         2.51098637785360    7.56494114752426   15.20616516997641
C         2.29511906049946    9.64732126491476   15.59979583329502
C         2.29364688488432   10.66248672329724   16.56048995942279
H         2.11440103297956   11.68097548971929   16.25684038341385
C         2.51680035559318   10.35810358063270   17.88259658519906
H         2.51463230643823   11.13278771446718   18.63405346294017
C         2.74786473750971    9.03605653505696   18.27340104923710
C         3.23024339750891    7.50842519997654   20.08946108057786
C         3.08389293229427    8.13698826174065   23.44102948765718
C         3.59325381558104    9.10478226556649   24.37249793270108
C         3.08513561106007    9.34470232293297   25.65380061049362
H         2.24927532127313    8.76561188195523   26.00893672254302
C         3.65263766892766   10.33223389654218   26.43036896561170
H         3.27521457298321   10.53825278718921   27.41903209819814
C         4.71192747272614   11.07236754169454   25.91142259088497
H         5.17170595711790   11.86252810829144   26.48108919366313
C         5.16435674417434   10.78841939761969   24.63819450534344
H         5.96630627072650   11.36490113506476   24.19334028261399
C         1.98770445293286    7.17660804758853   23.76668839947263
H         1.88227182206869    6.46493497119604   22.95204898992882
H         1.04467052765811    7.70566094586948   23.89685264232530
H         2.21023332326290    6.64116098257582   24.68724374482786
C         3.22934561984984    6.44640319943024   19.14932024033923
C         3.44659565365596    5.04055261487719   19.28922648648793
C         3.72891519144387    4.20783281894429   20.36859552451082
H         3.82067393134185    4.62249711658112   21.35999637502461
C         6.38455768457363   10.21703877318298   20.11112328194927
C         7.04411385113732   10.68150123676182   21.28171281369435
H         7.30503418978695   11.73102807362101   21.35903075929400
C         7.44510020378331    9.78058211872261   22.27483961823701
H         8.02789729738599   10.13818622690511   23.11803134347904
C         7.18500868784087    8.39077025598168   22.16455928046065
C         6.52091455020116    7.94024360574503   21.00254222532990
H         6.37160734286961    6.87764030936776   20.84522996937630
C         6.15857446575658    8.83624307129810   19.97270803401012
H         5.76265297607183    8.44839246262532   19.04081316800979
C         6.01223413121828   11.18115292984826   19.03023489719036
H         6.87732922284943   11.77809978169229   18.74475936818324
H         5.24231994797779   11.86465421653247   19.39088585611120
H         5.62906669679460   10.66465623137284   18.15340631908278
C         7.68811961466385    7.41932254055912   23.20578357529536
H         8.14159306008612    7.99430588357544   24.02121175479057
C         6.53580779566470    6.59558389977980   23.78638547052242
H         6.90725115925813    5.94022949129582   24.56949762301874
H         6.06796583106208    5.98062428456969   23.02108496307551
H         5.77921953381188    7.25282018340218   24.21797700884673
C         8.76433941289043    6.51120134381437   22.60292833847685
H         9.18167174236045    5.87272981263005   23.37648237283589
H         9.57027186200030    7.10302561122068   22.17492614635810
H         8.34855450430666    5.87707398218276   21.82388605361898

