91
CSD_code = IZUPID | q = 0 | S = 0 | Stoichiometry = C45H41NP3Rh | MND = 4
Rh       -0.50217156334175    2.55852741877150    4.32326896789401
P         0.30191022096931    2.01690535062924    6.33750373925035
P        -1.23015181159311    3.24887521111685    2.31636426415922
P         1.20255304269313    1.73551227911484    3.16064399579556
N        -2.04889484040045    3.30837900635397    5.39601104768356
C         0.17164437660062    3.16420152545495    1.09139689332525
H        -0.19451530366588    3.25329069056642    0.06450959063039
H         0.84005888043253    4.00759733954103    1.29532077545041
C         0.90345649882897    1.85265166227932    1.32672578536253
H         1.84668574530769    1.80110981471000    0.77475333012465
H         0.27210307967142    1.01187245093868    1.02339686543386
C        -3.25231492513050    3.84710023010775    4.79645940064946
H        -4.14802942487707    3.43422617502762    5.27900242986455
H        -3.30670617784201    3.58209193349889    3.73834812429799
H        -3.29690115186634    4.94399619515731    4.86970199302283
C        -0.92727125969652    2.72113201545719    7.43667049011821
C        -2.00120818367320    3.34342996123349    6.74216987173145
C        -2.97424219567835    3.95733482237474    7.57157589225733
H        -3.80499425620149    4.48967922205446    7.13502237624776
C        -2.88110148186303    3.90990451522331    8.94254033069433
H        -3.64692321719003    4.39446768200708    9.53424067632406
C        -1.83242965909097    3.26236425312628    9.58843004633397
H        -1.78280932156713    3.23405836255391   10.66646596978107
C        -0.85182318541421    2.66974025999260    8.81844744853798
H        -0.01209205673100    2.16820660457793    9.28294890219337
C         1.88726934896038    2.72332540897608    6.88089205814564
C         1.91948449036701    4.03523642474608    7.34517323571013
H         0.98809200206059    4.57044503733743    7.47578860662026
C         3.12701654172370    4.64150634837905    7.63620306452735
H         3.14522424422230    5.65804800848262    8.00314053089561
C         4.31397812509201    3.94984984491896    7.45474491639721
H         5.25788857658981    4.42575970146877    7.67800180202739
C         4.28921971981896    2.64660330244227    6.98565979219273
H         5.21473520765043    2.10667216235928    6.84205250280442
C         3.08319569246946    2.03647519037637    6.69667134568129
H         3.05685012660323    1.01926010712131    6.33151892823886
C         0.41559354430109    0.26612106257579    6.81828240171751
C        -0.36284442086644   -0.61295741369409    6.07202967398078
H        -0.94770155889261   -0.21097140487581    5.24883504214060
C        -0.38076694797043   -1.96113334904185    6.36952918509340
H        -0.98305107734652   -2.64029103494131    5.78346859312824
C         0.38255704973251   -2.44182227047402    7.42119098175760
H         0.37995526536642   -3.49693503667905    7.65376139850358
C         1.14669287266381   -1.56961726866700    8.17919082341807
H         1.73325899848732   -1.94623177751384    9.00530738359614
C         1.16290685675523   -0.21797521913380    7.88544601846554
H         1.76129558199741    0.45867874872074    8.47965764036679
C        -1.89738149283256    4.89293703316521    1.89771110125207
C        -1.08764970389549    5.96926772470719    2.25180191405176
H        -0.13003591872418    5.77300372919627    2.71996742918033
C        -1.50860785575327    7.26559495827336    2.02967503548222
H        -0.87389362721062    8.09639552264987    2.30252740629853
C        -2.75357901857502    7.49871285006701    1.46613470613217
H        -3.08788559817539    8.51122709988324    1.29350007008030
C        -3.57603817547458    6.43347913382552    1.14078423134508
H        -4.55406451228224    6.61589935860236    0.71916220617576
C        -3.15574326798133    5.13295370411876    1.36041481416397
H        -3.81173705041346    4.30752960467690    1.12083716623830
C        -2.37755891982497    2.05324993341415    1.55472894090303
C        -2.79679744588486    1.01141553751168    2.37736205421450
H        -2.46103128624674    1.00677310949954    3.41587326636849
C        -3.61770538436281    0.01430994608604    1.88415569568016
H        -3.93997005160912   -0.79227498702710    2.52659873491007
C        -4.02574821883527    0.05348046273716    0.56042134393877
H        -4.66789292997793   -0.72192562172487    0.16891586112674
C        -3.60973592742593    1.08621205315861   -0.26535782232589
H        -3.92889645540206    1.11263336736808   -1.29752290268370
C        -2.78515763717594    2.08298094159574    0.22502155747833
H        -2.46203534443373    2.88494645455144   -0.42500123635303
C         1.71476979219065   -0.00242584849249    3.34766218751967
C         2.88122073486292   -0.40524683581852    3.98703372427449
H         3.61404008049204    0.33200809988788    4.28180996212401
C         3.10849962498207   -1.74641684178451    4.24108451165167
H         4.01663734761812   -2.05058100216146    4.74175769413259
C         2.17720301437637   -2.69736580451726    3.86178793273532
H         2.35846986582606   -3.74266803861415    4.06374312140471
C         1.00735763440829   -2.30364740046361    3.23172568337224
H         0.27497491363710   -3.04266967495039    2.94014076802418
C         0.77190755144640   -0.96486516258667    2.99062829016103
H        -0.15821031498104   -0.65077331368627    2.53240783699347
C         2.74069037745036    2.70790993126288    3.27461779652000
C         2.64634933926172    3.91774855839906    3.95403622184975
H         1.68560626090129    4.19390551178930    4.38879387039430
C         3.74980190869286    4.74050705229472    4.07810556842862
H         3.67227378118890    5.67569496140698    4.61283362857048
C         4.95749544178066    4.35626331427159    3.51926265404978
H         5.82680204522841    4.98927075427953    3.62204531455617
C         5.05256926832781    3.16316831500400    2.81994900260092
H         5.99378564819339    2.87326862031257    2.37469366167919
C         3.94753246577648    2.34181616263771    2.68838379470725
H         4.02108697242035    1.41519517043916    2.13452006795320

