29
CSD_code = IZUQEZ | q = 0 | S = 0 | Stoichiometry = C15H10MoO3 | MND = 9
Mo        4.13150788967607    4.58470550019714    5.24447485289457
O         2.05430093265222    2.35394938738889    4.86936443960889
O         2.60046018049091    5.99276661501920    2.98415751092007
O         2.06391193471832    5.89708676181335    7.09783696375063
C         2.80180408120588    3.20833941982128    5.00721781393949
C         3.15305874928792    5.46208286327398    3.83450270027412
C         2.80864725838104    5.40232545428713    6.38467576204612
C         6.19826730495429    4.47980357500181    4.11156003818027
C         6.18837070945545    5.65586171955900    4.91835709570409
H         6.44875064336237    6.60763191383937    4.46434588629501
C         5.98344634340131    5.57065112092653    6.29327818278683
H         6.06847290902941    6.45869663063474    6.91321921414953
C         5.77640802508432    4.30824289808216    6.90570695581422
H         5.69600620095832    4.24164692286912    7.98637349501508
C         5.77391083776336    3.15482343642823    6.12575705762666
H         5.68606578484743    2.17859257594020    6.59354748286626
C         5.98419583790695    3.23979576389768    4.72735775240737
H         6.04665675995731    2.32746918390079    4.14122875032896
C         6.53173878066854    4.57328049945826    2.67897643513832
C         7.41460268526308    3.66142666410275    2.10293221998835
H         7.86408081385383    2.88938466905969    2.71224900739832
C         7.73834988581192    3.75181903377225    0.76187487219938
H         8.42554883892419    3.04020452411303    0.32863734150436
C         7.18491786514378    4.74966297305247   -0.02233696310179
H         7.43464040665101    4.81534573426143   -1.07053882136399
C         6.30964007973362    5.66242278729300    0.54269647519939
H         5.87127599941144    6.44015032188191   -0.06426043559547
C         5.98854177037487    5.58066967236056    1.88438861654922
H         5.28832049103180    6.28446137776518    2.31241929747618

