22
CSD_code = IZUQOJ | q = 0 | S = 0 | Stoichiometry = C10H5F3MoO3 | MND = 9
Mo        5.76574199554112    1.37049487813224    3.03676894487594
F         4.70679666800139    4.22764527758208    0.79917072258496
F         2.69756181405698    4.42273062376519    1.54520761796306
F         4.36633478876509    4.86728114097165    2.82877433533396
O         8.02098831690622    0.84494858898928    1.01833703298058
O         7.47671263498391   -0.22392449269861    5.03308620479154
O         7.42107063977444    3.83270928920003    3.83676371051561
C         7.21061740702197    1.04293473671059    1.79581305197302
C         6.87503074406179    0.38722945306634    4.28051160882718
C         6.83714722334015    2.89859197157980    3.54930945723633
C         3.94365924592484    4.02169090619770    1.87977057298574
C         3.96430276802959    2.59450446763401    2.33405545792903
C         4.13532231085255    1.56776316434505    1.39868128439992
H         4.21891913616833    1.80038067415830    0.34110751919890
C         4.10339501036160    0.21923314630010    1.83417115765252
H         4.16815780825288   -0.57900274006820    1.10227987144744
C         3.91934155256552   -0.07175729394942    3.18483936596848
H         3.84197305802690   -1.10332862232301    3.51333627577551
C         3.71195016706875    0.97391240267418    4.12437664804347
H         3.47526128843190    0.73023210263409    5.15474461837517
C         3.72364906715973    2.30030990301768    3.70687557509783
H         3.49556635470455    3.10772042208085    4.39601896604381

