30
CSD_code = IZUQIF | q = 0 | S = 0 | Stoichiometry = C12H10Br2HgN4O | MND = 5
Hg        4.05097612711999    1.30134591361183    1.95016573058900
Br        5.91086706357227    1.82004108125903    3.42965275087453
Br        2.50574966695568    0.44947802700832    0.27970182026208
C         5.24136268938196    3.68048854116616   -0.40374667045746
H         5.78512777303033    2.78037012545824   -0.65938963805557
C         5.45295736217063    4.85851217447999   -1.10867229765616
H         6.16365007275591    4.88586299761406   -1.91873637797074
C         4.73273126716201    5.98394252657180   -0.74437727375896
H         4.86756261899400    6.92003971942881   -1.26535219465489
C         3.83358362965972    5.88569406491528    0.30307982604258
H         3.25205068237777    6.73842620696503    0.61829841668880
C         3.68501665878090    4.66100763848148    0.95477934001682
C         2.74870323543276    4.52679518293877    2.05616119706324
H         2.17388928384093    5.40857951296173    2.34877629410544
C         1.67348359941481    2.02267645181504    4.27694866166023
C         0.68917048716606    2.01744899659909    5.38859506037772
C         0.47315517808331    0.85825462532867    6.12590122022073
H         1.02642909712462   -0.03446856869341    5.88225657216743
C        -0.45466863177416    0.90068153431233    7.15478149929707
H        -0.65172196001793    0.02309754141042    7.75193833241093
C        -1.12257570082399    2.08958869222260    7.40067699934382
H        -1.85233182758167    2.16632345972546    8.19102499596493
C        -0.83266928212776    3.19132277528478    6.60406366922562
H        -1.32809095006689    4.14077153506146    6.75758312018045
N         4.38723585296706    3.57795399739735    0.59749660004073
N         2.61864713248463    3.40752569571032    2.64753621643542
N         1.77434166782833    3.23875016954006    3.66194805092710
H         1.18232699400207    3.99304255333007    4.02172312720985
N         0.04835288200802    3.16288230322583    5.62370607411418
O         2.32318733007907    1.04976452487002    3.94627887733617

