33
CSD_code = IZUQOL | q = 0 | S = 0 | Stoichiometry = C13H12Cl2HgN4O | MND = 5
Hg        6.39953435048925    4.29683104017565    3.23265887869743
Cl        4.87161479835304    6.00404618387240    2.96755073626435
Cl        6.73065953346685    2.07270695745831    2.93497731072874
C         8.52698702511593    4.21755430888960    0.52894896852023
H         8.01651699517203    3.26428328142122    0.49165355505364
C         9.47189451372823    4.56654416522258   -0.42629803296549
H         9.70702338902015    3.89052734669634   -1.23238451586770
C        10.09972541321450    5.79530391361060   -0.31101358294403
H        10.84768296615498    6.10370057223176   -1.02646429073600
C         9.75806094474792    6.62558954686144    0.74328375702535
H        10.25269294859067    7.57561454690122    0.86871384499761
C         8.79207939744531    6.20129253499014    1.65492685974851
C         8.38965647584770    7.02220387536871    2.80687060062571
C         6.78509553230551    6.20794961838928    5.82987380854244
C         6.29577957781104    7.02451664242987    6.97201944390233
C         5.52300698174816    6.43994579371353    7.96960708000649
H         5.29616929189886    5.38757413196661    7.91154089612373
C         5.06724918512008    7.24452983758492    9.00191263517458
H         4.46097752950663    6.83058238610989    9.79371765994527
C         5.40171381183310    8.58931337913161    8.99586150026499
H         5.06589466729591    9.25162256162643    9.77808598055303
C         6.18092404629379    9.07384076581772    7.95216266215034
H         6.46689219489471   10.11625524995365    7.90305705144538
C         8.54062057870236    8.51406329426668    2.77384914782065
H         7.64427229845400    8.98110891236079    3.18145382746749
H         8.67122384010893    8.86927794117253    1.75704958130814
H         9.39604566864651    8.82871741619522    3.37294884621690
N         8.19532383547428    5.00897715129756    1.53428934008833
N         7.90785916520427    6.36639796677271    3.79308475548683
N         7.48424300678559    6.94220870242066    4.92048175518207
H         7.50487803139638    7.95160842689283    5.08023819369961
N         6.61819077587746    8.31818800280480    6.96398629158947
O         6.58251122928426    5.01042354535935    5.72465545388198

