105
CSD_code = IZUQUP | q = 0 | S = 0 | Stoichiometry = C33H63ILaNSi6 | MND = 12
La       -1.43001980808468    9.47077785590628    4.64080605642888
I        -0.07741063925655   10.55251228122480    7.06214801891902
Si       -0.62643236433076    6.37375847828464    7.25311907613681
Si        1.63116191994406    7.64047004992374    2.13880625888451
Si       -3.21175967426115    5.75840947865709    4.41868813100951
Si       -3.26108137891394    9.74365321188385    0.60220292278303
Si        0.45985562230877   12.74274541680007    3.68036844634548
Si       -3.21358562031729   13.32351589013264    4.99955148244847
N        -3.73741034855575    9.45308456212890    5.94268650993305
C        -0.65866020094961    6.98711460909692    5.47240925909198
C         0.49885295524482    7.47594795513443    4.83221026479624
H         1.45334923296740    7.62132846826877    5.31852110946675
C         0.27155406909956    7.63335432625421    3.43918458089139
C        -1.07789021865508    7.24495186744731    3.22434859558586
H        -1.52382145305875    7.10024140295611    2.25104148109810
C        -1.67597318201664    6.84138416244376    4.45366439951455
C        -1.95226627217391    7.21658267405592    8.35413064801520
H        -2.84527379059155    7.47665425279307    7.79349455189321
H        -1.56300554845909    8.12251712531895    8.80740647603133
H        -2.25500113956147    6.55724889567531    9.16158128464243
C        -0.86944283252500    4.47861150868961    7.32534150973349
H        -1.88104511259112    4.17959685573299    7.07748152695906
H        -0.65378562588429    4.11089478143909    8.32346211307315
H        -0.19818740837191    3.97410336348544    6.63829080134892
C         1.08719716418398    6.71618625093179    8.02316116180715
H         1.11501131428387    6.37030707563930    9.05187791899896
H         1.33025198207265    7.77310069405170    8.03157553678042
H         1.87282638693337    6.19610141531493    7.48430998405177
C         3.32376646059494    7.74085750904801    3.01470941904409
H         3.42628489878447    8.64791824119443    3.60169693772519
H         4.13145818915088    7.72910960959108    2.28974273229641
H         3.47102235508772    6.89787069584787    3.68170256652534
C         1.50059420797412    5.97939026916874    1.19844979394918
H         2.32671271776143    5.85317490109037    0.50557951319732
H         0.58058043132055    5.91962332388016    0.62502915485487
H         1.51196291811446    5.13810214926594    1.88417050937404
C         1.58564220882842    9.02150259801936    0.81290600450373
H         1.78574372396686   10.00392820820684    1.22884456197197
H         0.63360472435983    9.06162792999646    0.29196693563703
H         2.34961353284272    8.82731330095223    0.06555972512844
C        -2.72153086298394    3.95876197693075    4.00071123360259
H        -3.59799409501132    3.32560733764465    3.89802472034706
H        -2.08959382604465    3.52733002186160    4.76874290688356
H        -2.17031142128519    3.91531957377208    3.06628514074686
C        -4.29925963486815    5.73230725555259    5.99250523825151
H        -5.15462726805775    5.08229750131714    5.83410102150778
H        -4.68302600917347    6.71375792685275    6.25404508376188
H        -3.75755307713360    5.35329584347199    6.84998876017061
C        -4.33797845211607    6.37375580023859    2.98579709010044
H        -5.38571835576431    6.37193153192275    3.27233589266964
H        -4.24528578925244    5.72315646327629    2.12194801137295
H        -4.08091091969913    7.37742394207613    2.65676033241859
C        -2.56194632541335   10.38569828262975    2.22253359425528
C        -1.21880694089317   10.82440201166754    2.39638012624871
H        -0.41303051501679   10.60586524218585    1.70984644809901
C        -1.14831919505055   11.78120268589065    3.44331734093723
C        -2.48894806491025   11.93788285530132    3.95676436246998
C        -3.31762072164481   11.08067945100989    3.20108589162504
H        -4.39457517971035   11.04928456522266    3.27759640359439
C        -2.88500766199587   11.07692661842949   -0.71723510871523
H        -3.35203481218500   10.84021515225608   -1.66863052712418
H        -1.81683271044374   11.16794004596550   -0.88919920926138
H        -3.24613511671252   12.05150657860105   -0.40381684188010
C        -5.16035648988243    9.56176277304673    0.73377087577978
H        -5.57468519722605    9.25996099254689   -0.22289116414840
H        -5.62287138182656   10.50517848847685    1.00511959655493
H        -5.46687870750181    8.82074589701436    1.46502278676782
C        -2.53546721770096    8.10334856898693   -0.06735707205826
H        -2.76083067776710    8.01508355480947   -1.12624234328262
H        -2.94994843062072    7.22713877747188    0.42061115709759
H        -1.45508036399178    8.06525950556360    0.03501402920782
C         0.78779607444734   13.67566623525608    2.04180103604655
H         1.74849867927075   14.17963191737133    2.06471996468187
H         0.02610287070510   14.42675043919939    1.86075611100548
H         0.78697824095362   13.00293208985679    1.19050160481859
C         1.85661977668191   11.43751137450557    3.92019104319109
H         2.36898780255250   11.58182713473077    4.86664401362226
H         2.60522141579822   11.51130430574316    3.13682965185846
H         1.47027495806623   10.41467316193406    3.90716745617041
C         0.60452206374530   14.01022466152213    5.09725693219317
H         1.50876794431456   14.59496316296886    4.95763178639644
H         0.67726388009066   13.53146197079165    6.06703435798859
H        -0.22986118905641   14.70002852290748    5.12448614279079
C        -2.60636339805179   13.48402292129393    6.80441445637668
H        -2.97377795748072   14.41068258769946    7.23584429645764
H        -1.52683269314612   13.49532623760083    6.88499448151085
H        -2.97238566180571   12.67241141861108    7.42629855479293
C        -2.97065710139054   14.97603519393734    4.06703572339099
H        -3.61782390760143   15.02409624423391    3.19659426532458
H        -1.95126659283884   15.09616207356373    3.71761686895678
H        -3.20841448130170   15.82468243426922    4.70062454888579
C        -5.10662835988950   13.04429758676180    5.13101103910266
H        -5.58355601729800   13.07524138085949    4.15718196578964
H        -5.56161232753268   13.81962970340225    5.73879309528681
H        -5.34985291989331   12.09012820276557    5.58883437402697
C        -4.87246883695628    9.12171875151669    5.32071698142640
H        -4.77665922043104    8.73096403078511    4.31691630642151
C        -6.12499669439603    9.24908681731010    5.89628977881059
H        -7.00403132510715    8.96713096930280    5.33896302326294
C        -6.22164342061877    9.73954085434153    7.18887461468491
H        -7.18226002691638    9.85395195090471    7.66757883870564
C        -5.05133023572105   10.07838872284397    7.84750946648075
H        -5.06770074475553   10.46170495080244    8.85486872256103
C        -3.84309042590518    9.92084604024781    7.18960894285156
H        -2.91984914373315   10.17787508220017    7.69154581527653

