110
CSD_code = IZURIE | q = 0 | S = 0 | Stoichiometry = C41H60ILaN4Si3 | MND = 10
La        9.67554264432553    2.68708640573034   12.94916028262870
I        12.01491915665671    2.64736260747322   11.05828843390136
Si        6.09852213532115    0.12800893961148   14.53669783753666
Si       11.28242815138876   -1.33904536208814   12.67659609263165
Si       11.67561040287311    0.97435110443581   15.71758835853931
N         7.04230336188060    3.20158580568758   12.78559179989113
N         8.29274256357535    1.71101953073863   10.85512651812182
N         9.80898790123405    4.19314018934787   14.73358068697367
H         9.48399039933217    3.67926425935179   15.55425584559362
N         8.85632417187050    4.80374419655353   11.13498764339464
C         5.41196718992978    1.46915797819148   15.71695031332849
H         4.41189326939478    1.21124448229645   16.05184476573229
H         5.35589308056749    2.44372437870803   15.24175296399478
H         6.03227424210327    1.56733786119352   16.60172853430340
C         4.99866818504220    0.11418647552617   12.96739558665410
H         4.06801499487220   -0.41158636272416   13.15554371447398
H         5.49592242848335   -0.38923793711790   12.14427431801705
H         4.74525271860820    1.11700465725834   12.63747838620318
C         5.85647472332236   -1.56688323505914   15.39262974549037
H         4.81407969301105   -1.75032396472657   15.63718101906925
H         6.42734729974163   -1.62443049293663   16.31413837548567
H         6.19346731671828   -2.37662776361019   14.75272264508642
C        10.85245380731164   -1.79026756229529   10.86034331866252
H        11.25541800056248   -2.77024328277067   10.62377758875878
H        11.28573217211090   -1.08989143585045   10.15345453516613
H         9.78189064894961   -1.83217899308109   10.68825018812438
C        11.06648664180809   -2.96739371530368   13.66553693641876
H        11.80758344337939   -3.70868410614473   13.38222516798489
H        10.08528614918216   -3.39577641559390   13.48487540362370
H        11.15215108802866   -2.80312768497568   14.73391886697788
C        13.13931074122611   -0.89660461002686   12.63496662789425
H        13.69388315299114   -1.73195961988430   12.21702540342761
H        13.54580234254403   -0.69853130021377   13.61890747389686
H        13.34335178006797   -0.03461634232252   12.00987374919890
C        12.45929290883804   -0.64353766913158   16.36387297842340
H        13.32015836534933   -0.42200171412552   16.98699336969671
H        12.78854372826580   -1.29657251864245   15.56607549229414
H        11.74934769081772   -1.19731706363597   16.97015029577492
C        11.15321712887690    1.91787230609806   17.30237796112172
H        11.96162589258506    1.91003491371719   18.02698186966706
H        10.28870560927020    1.46889024610571   17.78053506839533
H        10.92200176351933    2.95619522467625   17.09124310400049
C        12.97706443216928    2.08211197725070   14.85197213862366
H        13.79127937106191    2.32743737927470   15.52826716153825
H        12.52709834722524    3.02259028137839   14.53110676838022
H        13.41502852617714    1.60788009053347   13.98033259766881
C         7.91320112883444    0.37262479310564   14.17280764216722
C         8.66987940316011   -0.29135812220063   13.18003386444835
H         8.24315338788209   -0.90402825209859   12.39893007303092
C        10.04787837420049   -0.11965623972622   13.40883421191768
C        10.17492340299238    0.69320766413374   14.60727463877038
C         8.84940671508205    0.98300956755427   15.03413888029880
H         8.59223726076798    1.46018428951428   15.97047176851241
C         6.50824932656605    4.07762811676012   13.62843425708057
H         7.04691400522761    4.23984724315500   14.55088844837448
C         5.33911438748966    4.77594566581793   13.37605310522160
H         4.95224376603099    5.47552309055030   14.09922792501435
C         4.69481749488560    4.56433168467199   12.16522653795770
H         3.79648973091257    5.10726044203624   11.91269426534870
C         5.22816945595450    3.64262634115708   11.28662273258611
H         4.75844710962586    3.47178304517526   10.33122552981821
C         6.39493845221471    2.95573472662876   11.63318890981468
C         6.97660350987461    1.95038372548729   10.73617068797621
C         6.18852968460841    1.26858601101452    9.80529190250993
H         5.12355727784035    1.43062168355927    9.76857323994360
C         6.77848370714880    0.35176240107864    8.95743349037529
H         6.18316144356509   -0.19162893825231    8.23903044186061
C         8.14748149104263    0.14565738634170    9.05171277946975
H         8.65787300731915   -0.54749528794154    8.40333801386456
C         8.85036394465296    0.84127209338648   10.02081790770744
H         9.91483520759895    0.68859782235485   10.13150467695919
C         9.50416690576396    5.50881180928579   14.91061881117651
C        10.12734718775622    6.49260685723775   14.08448150647904
C         9.78691262785290    7.82351416456343   14.21208295427510
H        10.26587917662285    8.55968523248514   13.58500225963835
C         8.85551937030523    8.24370312009592   15.14750919832229
H         8.59726599719538    9.28886471660176   15.23250815500129
C         8.29722638329566    7.31319917316384   16.00381152868713
H         7.61444743096043    7.65591089279834   16.76695507677082
C         8.59552496014631    5.96545685232924   15.91300702407354
C        11.24719618955233    6.06919604264232   13.16058824465969
H        11.01226587537854    5.05974399497260   12.79090437027827
C        11.45447275994124    6.97066251495119   11.94411272343236
H        12.12723800440977    6.47997792496948   11.24358968783185
H        11.90310602425194    7.91950110093627   12.22912016844259
H        10.51352771204125    7.16977790826151   11.43429656532921
C        12.54745241956814    5.98481254444996   13.96902831671484
H        13.35151184956499    5.58367548253073   13.35556103921547
H        12.40960884402349    5.34269734983550   14.83590904682535
H        12.83426264522560    6.97459340920129   14.31969537818343
C         8.00201490664420    5.02119165065057   16.94450149932895
H         8.02217838476349    3.99018255805713   16.56809254837394
C         8.85209254818465    5.06949621728306   18.21909410677286
H         9.88868593163070    4.82356527747663   17.99886476325907
H         8.47683622571833    4.36420643340424   18.95881565922229
H         8.82717092686400    6.06965509796855   18.64646024580518
C         6.53978467443256    5.32683153263289   17.28339249884085
H         5.94919336941019    5.47169912448750   16.38100287433252
H         6.45474454013535    6.22024888511702   17.89644495830035
H         6.11107874011556    4.49792449010076   17.84393515573489
C         8.95926380858232    4.63159070709381    9.81941158086893
H         9.56334812304554    3.79718422154789    9.48790423157698
C         8.35565165357082    5.46474806307468    8.89161282341044
H         8.47521534612711    5.27606644201792    7.83654777896652
C         7.60998102428682    6.53957987279593    9.34744976551767
H         7.12215667662064    7.20938046451723    8.65483227875953
C         7.52028613041025    6.74272424631154   10.71486861848351
H         6.97301556156742    7.57771265168801   11.12281251085482
C         8.16102688208707    5.85506742262892   11.56372792284141
H         8.13324974390150    6.00974045774067   12.63474225964698

