101
CSD_code = IZUREA | q = 0 | S = 0 | Stoichiometry = C36H57ILaN3Si3 | MND = 9
La        1.04659255002343    2.32479593056605    7.54904908407501
I         2.86419325025150    0.05209673617297    8.28671898689615
Si        3.04303933191608    6.12513225137767    6.38860869337150
Si        2.22489168256794    3.13228743848105   11.27758597803608
Si       -1.10109491307504    4.74509580500600   10.03150119396813
N         2.78919759992578    2.48102691728240    5.49061512967788
N        -0.94687711913479    0.78369294012944    8.72501366111331
N        -0.63669648442698    2.62706652870228    6.05172653332789
H        -0.97895363658640    3.58607753869027    6.13279512314921
C         2.17537909480337    5.01980950429626    7.62676560088066
C         2.75684693175995    4.24617314703624    8.66009808585024
H         3.81868573144292    4.07459372869462    8.77701931790058
C         1.77409985000435    3.86000943475241    9.60061908012533
C         0.51092259176397    4.39799281213300    9.13051049201143
C         0.79609081770918    5.09325543470479    7.92757861173050
H         0.08439860141335    5.70110095753994    7.38475922415579
C         4.89253173045876    5.68885793118117    6.18724481870651
H         5.35752018480294    5.47183809732482    7.14279844570225
H         5.43019700766188    6.52298436842855    5.74783665280133
H         5.04054566036559    4.82888102045425    5.54231819039175
C         2.21197558493788    6.06825012630028    4.66521494317569
H         2.80576560849040    6.60357720426636    3.93030182017241
H         1.23306156966402    6.53577046071150    4.69037125493577
H         2.08278259101651    5.05173469218784    4.30454498883929
C         2.93729812443765    7.93131289258244    7.01197565629252
H         3.46330578131466    8.05227371691219    7.95379903696342
H         1.90697926267650    8.23192688910314    7.17517855087811
H         3.37360497329921    8.62354298166261    6.29802543929537
C         1.30302369824427    1.49556717112805   11.66708627386144
H         0.36003674713845    1.42497084404870   11.13254557047921
H         1.08294886637826    1.42090554120108   12.72772296288055
H         1.90617151537991    0.63242815383106   11.40376915792209
C         4.10000849113324    2.76033659929359   11.32197846377882
H         4.37683271674166    2.32907831554560   12.27897283159495
H         4.68803725226137    3.66298048696117   11.18997837228319
H         4.39389243312036    2.05222780481319   10.55388572937785
C         1.86835648139823    4.37831124371739   12.68193342049448
H         0.80629865210739    4.47130920218163   12.87887466292243
H         2.24714034893121    5.36486234105510   12.43665061482302
H         2.34700447837128    4.06076724131668   13.60282898264602
C        -1.72996288058387    3.39641304317527   11.23286139231562
H        -2.68562395812260    3.69384791545096   11.65388859573964
H        -1.04407847534812    3.24668045327576   12.05783232338549
H        -1.87581479964628    2.43806026154725   10.74395339307391
C        -2.48084149938410    5.00886176674049    8.72203106978704
H        -2.37804886932105    5.97550158667451    8.23934977243778
H        -3.46447655766543    4.98205737465446    9.18088407776110
H        -2.46405039091199    4.25304822050651    7.94265761544657
C        -0.96918496132404    6.38730102997014   11.00326001288289
H        -0.65742664519499    7.19901975280400   10.35333288907575
H        -0.24452582695213    6.32055282893381   11.80678909125236
H        -1.92428623363292    6.66224925524536   11.44090455569220
C         2.42214427889060    2.48692960518976    4.20726282481702
H         1.36271775209509    2.58397285365603    4.00468257058783
C         3.31577562210334    2.35416576835490    3.15732678996819
H         2.95247551016774    2.36009993620715    2.14206852451143
C         4.66339035433719    2.20499566200022    3.44017676764223
H         5.38712473439792    2.08852143549488    2.64756815360984
C         5.05721908134466    2.20996711390119    4.76821074835543
H         6.09384795522938    2.10057872373270    5.04435591753593
C         4.09213840737783    2.35568400746898    5.75062803861796
H         4.38411008489251    2.37076119004177    6.79315981446423
C        -2.21015279756063    1.10769256373439    8.44350037779911
H        -2.35153940395306    2.01133917995416    7.86619672124108
C        -3.29910837916918    0.34817907509260    8.83604248939161
H        -4.29783572546421    0.66389776069333    8.57917792614556
C        -3.07825613951831   -0.81386547174267    9.55762319707290
H        -3.90350586690464   -1.42993569729572    9.88192855280387
C        -1.77040415533786   -1.16551591694432    9.84645075902547
H        -1.54143057695216   -2.06232210231720   10.39938608610672
C        -0.74529655388259   -0.34216665603007    9.41058297072500
H         0.28223273256760   -0.60465882112900    9.62332936647003
C        -0.83921654863922    2.21513575359771    4.76780363603459
C        -0.64940636175491    0.85111142600244    4.40540992001261
C        -0.92724817868913    0.43164717131728    3.11774502338976
H        -0.79658101434552   -0.60973325360518    2.86121767042719
C        -1.38249983547107    1.30758396893201    2.15032616741968
H        -1.60612020785778    0.95797099285475    1.15366822659746
C        -1.54580197240148    2.64169187170164    2.47868602220329
H        -1.89643935170965    3.32236653455595    1.71825148761607
C        -1.26844765301884    3.11623914024969    3.74593141022045
C        -0.17562457906980   -0.17967988831460    5.40997260295149
H         0.07462219661126    0.33808651598805    6.35204916686884
C         1.08479814472671   -0.90987999649611    4.93694899186853
H         1.43323888441603   -1.59639241673916    5.70611597841571
H         1.88322231114774   -0.20042949817167    4.72075929111596
H         0.88769182224530   -1.48404996354807    4.03516679422243
C        -1.29017358936630   -1.18297640443557    5.72253927983568
H        -0.96815980678730   -1.88207332140099    6.49306274516024
H        -1.55548290681583   -1.74903724363741    4.83301657003387
H        -2.17978735420969   -0.66265106039353    6.07307729945681
C        -1.44529953766518    4.59183288077139    4.05363323052330
H        -0.72566069359342    4.87756940173200    4.83322841856735
C        -2.86454781580317    4.85381538376821    4.57201017716819
H        -2.98508182004786    5.89818246375637    4.85584913672662
H        -3.08772741168617    4.23186253389728    5.43688811394956
H        -3.59010969678697    4.61944116437571    3.79557840266893
C        -1.15390567536832    5.50209787768144    2.85926032704831
H        -0.19911216234946    5.24689940989732    2.40454032764543
H        -1.11032164697298    6.53812289710079    3.19158535764276
H        -1.93227899613153    5.43092952769473    2.10387320099839

