104
CSD_code = IZURUS | q = 1 | S = 0 | Stoichiometry = C54H44BrFP3Pd(1+) | MND = 4
Pd        5.62344987326048   10.88842128520356   12.01682381682848
Br        5.59874833838258    9.10191704685265   10.34991093951468
P         4.61253847749407   13.82985347057247   11.42416151780838
P         3.74234592552310    9.93830118181634   12.98581796928547
F         5.82552005717885   13.35314710779967   10.48666257635744
P         7.81094448796810   11.43996993235646   11.52050864932539
C         5.59859026297539   12.28800966457500   13.43444592355228
C         8.77403164511328   13.97024195657979   10.78265828722637
C         2.16482948556838    9.45518565100565   12.20946810873664
C         2.19651722949980    8.52394682776114   11.17171784254849
C         1.01966342189390    8.09448469894302   10.58748001193409
C        -0.19812850691752    8.58642133689959   11.02808722137575
C        -0.23356526781683    9.51104386446491   12.05851583793473
C         0.93954325317617    9.94754205458791   12.64807381345244
C         4.40431519297513    8.35489509047076   13.58998782323623
C         5.76725498317545    8.29566826316965   13.87530000619421
C         6.32173074735504    7.13638885930407   14.38404667099998
C         5.52146340983066    6.02622681996049   14.60143258267859
C         4.16645995042883    6.08030216310810   14.31751461980090
C         3.60245833492754    7.24115411929026   13.81920190249582
C         3.20632424689017   10.73624206761547   14.54016186367800
C         2.65876852046108   12.01567854094881   14.46712432703939
C         2.29501848660956   12.69387293057198   15.61321491057325
C         2.48082976348092   12.10223357672302   16.85284444993284
C         3.02317526072570   10.83173090806559   16.93488995487825
C         3.38668645436093   10.14894205822525   15.78650325565853
C         5.96136364541804   12.07351435808671   14.76605806614366
C         5.83410924879535   13.07333127986765   15.71317186289353
C         5.34628624958728   14.32865833446337   15.36670621626715
C         4.98693148239144   14.58469960237970   14.06191245112138
C         5.13347813454465   13.56838374370651   13.11511080634115
C         3.23933916938506   12.87087044330346   10.76478726427214
C         1.93830035247693   13.20892078704511   11.13533698649287
C         0.87616491453082   12.51430859184554   10.58621640573817
C         1.10923872383905   11.48812081674583    9.68217840028441
C         2.40398301005496   11.14366470162465    9.32838993807812
C         3.47806814244681   11.83546447785392    9.86294947516195
C         4.52736687869393   15.56960273127914   10.98201113225663
C         3.44929826483110   16.12837608370103   10.30738298231334
C         3.48824783890719   17.46956558961816    9.96614463769366
C         4.59417221065036   18.23972417250978   10.28992302281056
C         5.67325819814322   17.67452024842461   10.95429471205040
C         5.64356631156145   16.33889032915750   11.30668827388891
C         8.89524301785063   10.37198112680662   12.52703294208756
C         8.70741541528189    8.99665049914338   12.37967030267876
C         9.51714686013419    8.10542076630144   13.05863885528159
C        10.51360826853113    8.57488928841355   13.89946534571850
C        10.70986075221005    9.93847559232464   14.04110530922441
C         9.91290667676660   10.83768611025408   13.35335791895159
C         8.39608441642443   13.14119081373661   11.83519361974936
C         9.17179272220946   15.27291729261603   11.02675985075505
C         9.19141299840430   15.76698186675186   12.32102026537708
C         8.80939283548878   14.95082780952635   13.37395095659177
C         8.41152602871360   13.64849522571872   13.13345600128112
C         8.46019633686095   11.12792973038287    9.84679563095081
C         9.79527388046927   10.77037291253569    9.67817414813004
C        10.29667074389137   10.55851779400379    8.40749882560355
C         9.47674559136181   10.70237207803590    7.29991640343759
C         8.15142865955790   11.06867953217221    7.46298897354899
C         7.64496100333514   11.28330492967807    8.73124960481958
H         4.59806447529626   15.55055404624832   13.76926519850448
H         5.24539603350972   15.09679697945482   16.11745596494310
H         6.11279430254087   12.87488091520553   16.73752436223070
H         6.34191984124112   11.10486459981974   15.07536361451449
H         0.89212721988549   10.65516722172491   13.46257692283437
H        -1.18022200413177    9.88874479900133   12.41546805782679
H        -1.11747789075605    8.24420340724520   10.57759385192048
H         1.05698529334510    7.36641282860439    9.79173323279605
H         3.13979356059661    8.12566185889848   10.82914121731271
H         2.54438421978859    7.28150361966200   13.60365416688042
H         3.54398661839819    5.21453546536253   14.48509089880257
H         5.95481998603618    5.11723278812980   14.98947335730487
H         7.37786011663655    7.09930954134550   14.60600675647784
H         6.40349691783819    9.16792773896142   13.69026835260660
H         3.81023919808822    9.15798999090155   15.86350248115260
H         3.16549354873107   10.36624440027404   17.89846950362949
H         2.20139364939692   12.63157889780514   17.75073572610327
H         1.86832413508496   13.68374858523813   15.54311590225411
H         2.52243298579635   12.47409501501204   13.49521675426729
H        10.10084595101618   11.89693330420764   13.44980404146851
H        11.49714787057937   10.30831678358975   14.68091089459594
H        11.14498447339162    7.88077085730497   14.43301012224788
H         9.37537307724777    7.04401438820883   12.92048829669202
H         7.94502888515932    8.62018709331431   11.70902828983864
H         8.11582641891464   13.02034933905138   13.96176037677808
H         8.82279308636695   15.32664601182153   14.38636912235233
H         9.50578951758130   16.78220789163500   12.51020721739826
H         9.46941993630755   15.90290869537233   10.20206414945908
H         8.76044288903806   13.59524043802201    9.76965694599384
H         6.60764392974343   11.56232879842553    8.85369968179329
H         7.50892551167321   11.18014963855862    6.60293526871751
H         9.87071918398542   10.52625215922807    6.31080229725154
H        11.33092051930545   10.27541831808121    8.28293603255792
H        10.43892189437061   10.65385842415639   10.53858215733212
H         4.48911414421736   11.58856335363092    9.55272689982476
H         2.58755875737747   10.33820906825831    8.63462346900251
H         0.27605758097447   10.95381579536721    9.25398595122926
H        -0.13402502232386   12.77538247811333   10.86091159006129
H         1.76639872910466   14.01300158385190   11.83958714841746
H         6.47940046868323   15.88299882311616   11.82062064506909
H         6.53613339563786   18.27459860512355   11.19774829013782
H         4.61776834213293   19.28402697802377   10.01977280041782
H         2.65539507023174   17.91221430250640    9.44232517915907
H         2.59485016344791   15.52212303590990   10.04439433923308

