105
CSD_code = IZUSAZ | q = 0 | S = 0 | Stoichiometry = C54H44BrF2P3Pd | MND = 4
Pd        3.91891498844032    6.49895975972613    5.74805197525310
Br        3.96597080828994    7.55244572577013    7.98788989999135
P         6.11532818337384    5.98299414366361    6.11229576874896
P         4.39956046703086    7.69612843302053    2.70451971495174
P         1.64703563795592    6.55336638136777    5.45061797350517
F         3.23085238944423    7.72012414448549    1.44074862578831
F         5.70021149228978    7.64129418948491    3.95839113970311
C         7.29735506946781    5.46107062001325    4.81654184268147
C         8.38942873699343    6.22467414886343    4.42395549953038
H         8.59798324216680    7.16572927236569    4.90900310535816
C         9.22095070251942    5.78284340889537    3.40924358726054
H        10.06747943131582    6.38627721509017    3.11454307196836
C         8.96963661727943    4.58060059458122    2.77074746193119
H         9.61486354240941    4.24309625204084    1.97274840122366
C         7.88839689180131    3.80879612873493    3.16458686841909
H         7.68711324396799    2.86554298099889    2.67769015130526
C         7.06291340694654    4.24331624444126    4.18327904146161
H         6.22813937312393    3.63138943554028    4.49561270840632
C         6.13045235349681    4.46652898475646    7.12222805909570
C         7.31559853557491    3.79129062271165    7.40553182899720
H         8.25613621621704    4.18557232990412    7.04371199483026
C         7.28459367496619    2.62425761288298    8.14424863193634
H         8.20538490641662    2.10421467049221    8.36575285777965
C         6.07599997148694    2.11813612308084    8.59976143575006
H         6.05829496865950    1.20348076762732    9.17413909112573
C         4.89530699261486    2.78280447197576    8.31733634680577
H         3.95160548445463    2.38933658594692    8.66611213163348
C         4.92351015859414    3.95421030385325    7.58091461423930
H         3.99463530610185    4.48338570475209    7.36012302420934
C         7.08747987947214    7.17722351003836    7.09051629822465
C         7.49839804736445    6.89250462911768    8.38821714653520
H         7.26114996542937    5.93939560748851    8.83747356678335
C         8.18904626544940    7.83961696089926    9.12210419866029
H         8.49903866865691    7.60845493566721   10.13050962059618
C         8.46966443837550    9.08040546145013    8.57691342883523
H         9.00519179027250    9.81862147073902    9.15541925597057
C         8.04462746223612    9.37816393691103    7.29335180206937
H         8.24418395339254   10.35074388298356    6.86664749697995
C         7.35225654051873    8.43671904247128    6.55498694848825
H         7.01239276836647    8.68679349460600    5.56028502814237
C         3.97151822595322    5.34487527572868    4.13440764661696
C         3.77206532535026    3.96598062129999    4.19774685027743
H         3.55405207101933    3.48454182443229    5.14823668470501
C         3.84256330291546    3.18505498621190    3.05504313972882
H         3.68671290940655    2.11708985427286    3.12780134164478
C         4.11214429167882    3.76301016383455    1.82311630624802
H         4.17549598975098    3.14890927847751    0.93662103806202
C         4.28294236886331    5.13047159650321    1.73364635880807
H         4.46174470278341    5.60867465258784    0.78083270465688
C         4.20763180665769    5.90459194444278    2.88532026096414
C         5.67164709307051    8.26717460663203    1.54616171939840
C         5.49161630984978    9.44752469103277    0.84316244841379
H         4.59256420296317   10.02739196201901    0.99526686984280
C         6.46439841844560    9.86743769832642   -0.04657043029572
H         6.33227137133090   10.78970338606690   -0.59314604949692
C         7.60543179957894    9.10492653638119   -0.23741262474951
H         8.36175401791790    9.43358758370216   -0.93518349746971
C         7.77824401108318    7.92244201688680    0.46377969222159
H         8.66606895630332    7.32585162524719    0.31349397026072
C         6.81286531530879    7.50235164411107    1.36040875526970
H         6.93916182287442    6.58801489016608    1.92209621265523
C         3.53457197254846    8.99933220543163    3.65515701820099
C         2.51985247771192    9.72886795374928    3.04025163483101
H         2.18810012920670    9.47368324631034    2.04771776027375
C         1.91802960265209   10.78747046409122    3.69763877332574
H         1.13344764523534   11.34073712138360    3.20231710082315
C         2.31819067522374   11.13946310385857    4.97456164551406
H         1.84748351551178   11.96679685463524    5.48459562580526
C         3.33272904583134   10.42677008898723    5.59073437362896
H         3.66661674706039   10.69420349539127    6.58327479315181
C         3.93853167160142    9.36229320094794    4.94211847285999
H         4.76506968254291    8.86687807796127    5.44514912876535
C         0.89346068856010    6.72086402494146    3.79838031720349
C         1.10298304796388    5.77439202641551    2.79803017745517
H         1.69324120487092    4.89299835822280    2.99576528914684
C         0.56156914950607    5.95395771838564    1.53861221124588
H         0.73747651428262    5.21104350950601    0.77470074545937
C        -0.18748839541490    7.08201941105645    1.25443112567396
H        -0.60295314736061    7.22322559222535    0.26774658562460
C        -0.39255812763376    8.03298462448104    2.23931006317472
H        -0.97043243221766    8.92050231187243    2.02487964456755
C         0.14713803664276    7.85873356594227    3.49973504866909
H        -0.01004901615205    8.61342702969170    4.25767655775264
C         1.13436215286357    4.91326713204616    6.08033879307292
C         1.47602036408453    4.68359683193929    7.41469303529408
H         1.96480111976076    5.46758953836650    7.98542068636664
C         1.15803430638292    3.48420969942095    8.02308087235108
H         1.41905073601433    3.32250564837375    9.05886784402258
C         0.49961860026105    2.49814287020902    7.30540774944323
H         0.25619306689848    1.55605991777701    7.77457784780741
C         0.13934709671625    2.72944714563881    5.98904051936189
H        -0.39195002918829    1.97053272942185    5.43264479127618
C         0.44695158715565    3.93308449378839    5.37628189413143
H         0.13747744577403    4.10582775157792    4.35594281507434
C         0.46216771562932    7.55119371375796    6.42885541598617
C         0.82860054964450    8.72270794268544    7.07384047166078
H         1.85177599452980    9.05990835794791    7.03994446408203
C        -0.11362307295022    9.44938493775670    7.78259302466604
H         0.18456176766280   10.35512463911749    8.28871755447331
C        -1.42407849803870    9.01296441864941    7.84792622670105
H        -2.15812024243578    9.57802520459454    8.40344290144474
C        -1.79619073022044    7.84378270254540    7.20088895937682
H        -2.81902729956957    7.49910559898552    7.24973371458884
C        -0.86070612644158    7.11521484719005    6.49459871994516
H        -1.15265407943609    6.20516286516333    5.98759656244915

