98
CSD_code = IZUVOO | q = 1 | S = 0 | Stoichiometry = C49H41N4OP2Ru(1+) | MND = 6
Ru        9.48456945915471    4.29689998664980    8.80032189708774
P         8.89102766024809    6.50786818156047    8.30377648013574
P        10.16699051707372    2.05752149587414    8.85951920161569
N         7.97297974560909    4.05649642582098   10.15951129379500
N         7.95884114543013    3.69467984731820    7.56630346994881
N         7.83348768763588    3.47070125165107    6.23873427986600
N         7.48130138824303    2.99503941818135    3.59259712752000
C         7.99023980874751    4.25548766361507   11.47967468603579
H         8.92332787818849    4.58311454558508   11.91628406465097
C         6.89126561310715    4.06457310454665   12.29131714994078
H         6.97377147091574    4.24401449471574   13.35060296473159
C         5.68838958474190    3.64125125451483   11.72943019408719
H         4.81640518546289    3.48454137213596   12.34364077434359
C         5.64731863837920    3.43105008199918   10.37041402108007
H         4.74660008628431    3.10521677710494    9.87460088597078
C         6.80387549838290    3.64694256064255    9.60900245493856
C         6.84403204150881    3.45908484982017    8.19969942558289
C         8.80233690934907    3.70003988961802    5.44521602339924
C         8.65831885297513    3.44836021410630    4.02807963981316
C         9.73594391656338    3.68003334588786    3.16775399390517
H        10.67268993659116    4.04693275912358    3.55837663786512
C         9.57317593039752    3.42722263771697    1.81636861001423
H        10.38513790964393    3.59470486992138    1.12426519281989
C         8.34863310297391    2.95620036192127    1.37049612416116
H         8.17770685928978    2.74702240498148    0.32655823703362
C         7.33769868511966    2.75921175594742    2.30822795374637
H         6.36464783264245    2.39394241002120    2.00731180236551
C        10.19885766031530    7.76053214502971    8.13674886005212
C        11.54346045305981    7.42215532797789    8.21920148455704
H        11.82243288083134    6.38543480102021    8.36225780557218
C        12.51110968947158    8.40610675436560    8.10683475518220
H        13.55565138347708    8.14201154238535    8.17351459756705
C        12.13998764470964    9.72579378486528    7.91156547344861
H        12.89539877310517   10.49198117602582    7.82769232472562
C        10.79811486657349   10.06563704785399    7.82283833025099
H        10.50955822090824   11.09414908056697    7.66801809217910
C         9.82759705263933    9.08945917372518    7.93636678285596
H         8.78007272088149    9.35044982465944    7.87035383614187
C         8.01938956200673    6.62064835349251    6.71250964755924
C         8.74523741741108    6.91203237865396    5.56051259044463
H         9.78871661179489    7.18476360801736    5.64354213364582
C         8.13552610540377    6.84874006311886    4.32047324292640
H         8.70381950594621    7.07932774666209    3.43164535276361
C         6.80357363130509    6.48370527033602    4.21755792274268
H         6.33095173945329    6.42833135112577    3.24916925160119
C         6.07879530078100    6.18105411531974    5.35858808809302
H         5.04293023929099    5.88885242045554    5.27868644460112
C         6.68257794729957    6.24091313874685    6.60061766052395
H         6.11806431967469    5.98030613807706    7.48800315073248
C        11.94231147395874    1.68682565547904    9.00243502880863
C        12.90020583416213    2.68543137408459    8.87490089568511
H        12.58452337459189    3.70183219466611    8.67344177455622
C        14.24374237079350    2.37402124925308    8.99388438080441
H        14.98573356561385    3.15224152698669    8.89757015955378
C        14.63474919239613    1.06813505477437    9.23807886667440
H        15.68232666992577    0.82776601713439    9.33551557592064
C        13.68169500380375    0.06775433260344    9.35644201853614
H        13.98668994433773   -0.95085688263858    9.54275415377395
C        12.33901269186300    0.37175722118856    9.24002452039500
H        11.59425395950945   -0.40663753023864    9.33426906148355
C         9.53127749475985    1.07105693226203   10.25680942935063
C         8.93639544023574   -0.18142531511768   10.15884600801170
H         8.81466270999966   -0.65895141107869    9.19754554496234
C         8.51588569749433   -0.83349452958628   11.30608708284384
H         8.05388408648889   -1.80602073608926   11.22552743566846
C         8.69270631333933   -0.25194575782819   12.55014205464201
H         8.35801987816095   -0.76545468823475   13.43828762287350
C         9.31862870468840    0.98058613561930   12.65546504656215
H         9.48439142343689    1.42403340482852   13.62579179083716
C         9.73803925773218    1.63554557833098   11.51435027738867
H        10.25868016429149    2.58352895785651   11.58273102861680
C         9.69294720049700    1.16680846433784    7.34718567935586
C        10.61004928008762    1.07476887085802    6.30359067169306
H        11.61989246325968    1.43406157967303    6.44872109032977
C        10.22925965756731    0.53067529071748    5.09021786578883
H        10.94688645408681    0.45930622979746    4.28642746113412
C         8.93153784921269    0.08423697121541    4.90416090867475
H         8.63491997413247   -0.33680140850404    3.95587121774918
C         8.01024800617341    0.18622680793008    5.93345269772896
H         6.99590578455082   -0.15085284865524    5.78578001769856
C         8.38336436889328    0.73230408181980    7.14723481344118
H         7.65175952288582    0.83336834903073    7.93954069218121
C         7.83228154004914    7.35207703539947    9.52737206852711
C         8.31166615619395    7.32173939229833   10.83579740097928
H         9.25293922462805    6.82379409348146   11.03659869634203
C         7.61743332906332    7.94761437398711   11.85233584633035
H         7.99756162619085    7.92214379126154   12.86252477675079
C         6.43694648880420    8.61667805735496   11.56839273298709
H         5.88852207917452    9.10404890601444   12.35971422978198
C         5.97260764606927    8.67680000378918   10.26541157582545
H         5.06746591131930    9.22027730253006   10.03945986982177
C         6.66639524929068    8.05260876690032    9.24206579949087
H         6.30443948979469    8.12919454516569    8.22710019038805
C        10.71792951472102    4.80005439369195   10.07973228981611
O        11.43633629695928    5.09337348963572   10.92716883818939
H        10.51163881714368    4.44291795812776    7.66483225768464
H         5.97302651945534    3.13208793755874    7.64104201778847
H         9.76788722731946    4.08791957668606    5.78978612086553

