27
CSD_code = IZUWEF | q = 0 | S = 0 | Stoichiometry = C8H12Cl2N2OPtS | MND = 4
Pt        0.51370674678114    2.47898475822068    7.38773539547133
Cl        0.47815946121490    0.25195604002196    7.93201301904645
Cl        0.45363188946812    4.71713185425338    6.88595219871550
S        -0.23357942529640    2.91958941468711    9.46715780417607
O         0.86771781966548    3.00170684108684   10.40391665875157
N         1.26235075209890    2.08047657845284    5.62619506751334
N         2.40873918126554    1.54622922687151    3.16204094718719
C         0.66529513484524    2.45642630851904    4.49037593881948
H        -0.27261558775900    2.99082555803127    4.57096922174912
C         1.25212646818753    2.17833638195613    3.26412133413564
H         0.77977164144488    2.47378768222878    2.33845134006544
C         2.99402345545460    1.18140688248495    4.29012642091893
H         3.93995714850057    0.66725262704756    4.19952905484562
C         2.43239068386113    1.43855941529956    5.53262366373836
H         2.90820410503886    1.12467381913630    6.45411508777441
C        -1.30479601289457    4.38766242926988    9.74330047876690
H        -0.83392111080307    4.92558843993266   10.56313014574584
H        -1.29831987801173    4.99922436335606    8.84520172008696
C        -2.67290038427097    3.84561477801672   10.10933703922316
H        -3.22945633213850    3.59110749150597    9.20479524986463
H        -3.24978166534944    4.58232585486780   10.66913700259721
C        -2.42743576722123    2.58261578917805   10.93193810916254
H        -1.95568803460506    2.84650262839458   11.88037971267671
H        -3.35646050968408    2.05158529888734   11.14169825570209
C        -1.47639066017167    1.73666586303427   10.11110802883127
H        -1.96338403307092    1.29323835594978    9.24347890249789
H        -0.95084508655143    0.97082531930841   10.67347220193847

