100
CSD_code = JABBEU | q = 0 | S = 0 | Stoichiometry = C50H40AgClN2O4P2 | MND = 3
Ag        2.74972599169180    3.57032616434540    5.14250379374188
P         2.84950434248859    4.46749773440492    2.82912276955411
P         1.96266067891710    3.59166640774788    7.51582754442010
C         2.45699056320422    2.08115863325024    1.71834644743781
C         4.05562342676919    4.79544131673025    8.64093933011521
Cl        4.56871892736052    1.65642423775791    5.62285588812118
O         4.73442852681136    2.71843567310465    6.56626798082743
O         4.71984970687004    2.19228235804208    4.30464352419627
O         5.52127108046279    0.64734982268706    5.84966472249035
O         3.24677948585826    1.13909950144913    5.75309485750678
N         2.86903816754106    3.29335873684283    1.64832322139267
N         2.99191605904909    4.09102590526107    8.72927644602827
C         1.52524577124613    5.54538349733699    2.17450315022772
C         0.74272334808383    6.27083440902631    3.06251579941195
H         0.93069075967822    6.17418349406624    4.12601708611733
C        -0.25794385332611    7.10142343458774    2.58963749883340
H        -0.86285526827270    7.66811277489989    3.28254884938935
C        -0.48274254393912    7.20288265467399    1.22642737204314
H        -1.26465038579906    7.84917842009667    0.85558644976770
C         0.29362736533385    6.47505287494141    0.33782330164336
H         0.11566746618026    6.55557585498625   -0.72464537744227
C         1.29776257401573    5.64826918862899    0.80733669172868
H         1.91237963020571    5.07737921736269    0.12692584435949
C         4.33773253620232    5.33607742230163    2.22503154179513
C         5.51869193927087    4.59844492745890    2.24187487518183
H         5.49629749067928    3.58656345400219    2.62320628145822
C         6.69592514249290    5.16854079045671    1.79413034702209
H         7.61131430652326    4.59478208225646    1.80362310992957
C         6.70401977655247    6.47784121986067    1.33759044463371
H         7.62384469432264    6.92364031496749    0.98701793142355
C         5.53341174246588    7.21856413204377    1.33698584396290
H         5.54107930150813    8.24136037832771    0.98728018350536
C         4.35075676843589    6.65304622445566    1.78296489159470
H         3.44001320127104    7.23611219016527    1.78252592276327
C         1.73572239892624    1.48632363750524    2.84567316106707
C         0.79683553489393    2.23525922137032    3.56487977569369
H         0.48466607122317    3.20380423098814    3.18190005566982
C         0.12560605086262    1.66387994216844    4.63893175634435
H        -0.63440906921802    2.23160603845156    5.15908093801618
C         0.40103691681661    0.35992708638367    5.01448104285650
H        -0.11461090577440   -0.08088644357786    5.85339543689602
C         1.33924192453487   -0.38052328037458    4.31361568858664
H         1.56104896342083   -1.39197206732139    4.61650824967628
C         2.00139562962318    0.17287898909905    3.23650230294643
H         2.75310669655172   -0.39583518638055    2.70936611997539
C         2.75087134161921    1.22879515218211    0.55641747822991
C         3.90366106063890    1.46452797397690   -0.19235704410629
H         4.56431756117689    2.26132355027054    0.11327591274536
C         4.19689187710095    0.67567199082065   -1.28752201075809
H         5.09781795642333    0.85578901357328   -1.85519470652567
C         3.33773042318919   -0.34714083232578   -1.65813040026341
H         3.56748907455683   -0.96377096469148   -2.51454891608710
C         2.18155825442329   -0.57673616133063   -0.92971376236622
H         1.50685160352779   -1.36772047671524   -1.22268124102530
C         1.88764417849190    0.20263284455051    0.17362578203491
H         0.97928773866065    0.02966344793863    0.73249938497815
C         1.61203146611959    1.94777639320184    8.21246907868301
C         0.32714834879577    1.41916932592403    8.21512193997310
H        -0.49933691690231    2.01390526432667    7.84794300131415
C         0.10573927261762    0.14200258841677    8.69790980165262
H        -0.89680823385982   -0.26368679110296    8.71017758405125
C         1.16610419519270   -0.61858452228923    9.16211797752283
H         0.99161914713359   -1.61929396359832    9.53091033774333
C         2.45008135666199   -0.09804707550976    9.14958016733767
H         3.27861409267028   -0.69499772492451    9.50251078777921
C         2.67407227767413    1.18112805433380    8.67703301947047
H         3.67287964536644    1.59255130242902    8.64823517838414
C         0.46408060952858    4.48905075247087    8.06809251613799
C        -0.38747751178234    5.02789909689763    7.11466705502125
H        -0.13929095692822    4.91024115576523    6.06431241150964
C        -1.53478124442976    5.69722666544663    7.50362275899817
H        -2.19909531876548    6.11217084950383    6.75910124467627
C        -1.82823620213659    5.83370285698575    8.85030396439726
H        -2.72235019518109    6.35666739794053    9.15688722193606
C        -0.97621376199612    5.29988462812839    9.80513711974965
H        -1.20878008590800    5.40813154091088   10.85462744321489
C         0.16758971439376    4.62658580384940    9.41783406761125
H         0.83975334610894    4.20412685669946   10.14972779073029
C         4.54999806787862    5.42732980874959    7.41271983166619
C         5.90011589989542    5.33222234459824    7.07652558517324
H         6.57168279678544    4.79808059053263    7.73040385435105
C         6.36185589733379    5.88603052644060    5.89922715809432
H         7.40628877477941    5.80148004483970    5.63852937064403
C         5.49250614715941    6.55645470116673    5.05237794051105
H         5.86420314069472    7.00989640628689    4.14616490526203
C         4.14858867125230    6.65310723125805    5.37423198103066
H         3.47693279518931    7.20224849825113    4.72808774790905
C         3.67092024261282    6.07768700517133    6.54491935124895
H         2.64096665385314    6.23530347398198    6.85279231895591
C         4.84239706755546    4.96625221448011    9.87121840649170
C         5.65072651524956    6.08680027286302   10.06248868997613
H         5.69376539778469    6.85257223914341    9.30167340707606
C         6.37972182140933    6.22819313187837   11.22854662191709
H         7.00133452121410    7.10018656253908   11.37010590987762
C         6.31653418950734    5.25583604636824   12.21365190673752
H         6.89403180492676    5.36625906577193   13.11964290840586
C         5.50924366839064    4.14318035964351   12.03507825919747
H         5.45783699298017    3.38523501860312   12.80280568626111
C         4.77173020788959    4.00112129212897   10.87614270573329
H         4.14191567995876    3.13859955398771   10.72216341616622

