72
CSD_code = JABCIZ | q = 0 | S = 0 | Stoichiometry = C36H20AuF10NP2Se2 | MND = 4
Au        1.98666354477456   11.13433527543146    7.37540359593932
P         3.92932196399390    8.20920995830518    7.20736154591183
P         2.28271224476207    8.60447704936174    4.98959638215234
N         3.37171726657806    7.69924438418353    5.77482773165731
Se        2.37676012022026    8.95701889641067    8.57336735257777
Se        2.72057181917242   10.76052697541848    4.99707567616464
C         4.71197718723889    6.78618916669280    7.98048441672307
C         5.29555871998041    6.94344628147931    9.23132549208256
H         5.25202692686958    7.90674487060470    9.72205272594331
C         5.90923522478691    5.86174265273302    9.83354310847475
H         6.36264829269778    5.97143584602829   10.80717115892955
C         5.93879213042159    4.63509953065807    9.18676593747713
H         6.41771491353024    3.79106293353561    9.66033306041299
C         5.35363312393114    4.48440699145173    7.93973410248866
H         5.37668813404521    3.52539349769848    7.44375776785250
C         4.73538112045925    5.56146604293238    7.33008407630809
H         4.26713273968693    5.46862376430680    6.36121798063428
C         5.18286060388931    9.51392353470595    7.00947079860905
C         5.93125843419192    9.51230676861191    5.83856858011908
H         5.76287908981853    8.74006760142043    5.09970272122179
C         6.85644312509516   10.51654472857358    5.62409290826957
H         7.43021014622312   10.52957191909302    4.70953913154275
C         7.03238402492215   11.51216299358451    6.57206253176667
H         7.74250794242237   12.30502754833704    6.39281247410664
C         6.29266857529739   11.50344705225738    7.74327268858515
H         6.42200501082312   12.28460876284752    8.47618522047187
C         5.36495042074705   10.50310211354210    7.96591592451358
H         4.77418099365169   10.49802581089215    8.87404107447235
C         2.28276943448944    8.03063534841990    3.28447010838107
C         1.41656010953553    8.62774131906500    2.37756361619454
H         0.77891015118034    9.43809460452415    2.70395968002606
C         1.39417617477787    8.18492306627846    1.06884638293757
H         0.72685658449077    8.64386072326391    0.35515204187457
C         2.23125689271250    7.15237927358214    0.67375581561315
H         2.21202788595228    6.80868804058444   -0.34972636901310
C         3.09484264746496    6.56240364925055    1.58250153790053
H         3.74700823754483    5.76175368311135    1.26711647418246
C         3.12492645409099    7.00025931374355    2.89449441466296
H         3.79213216652402    6.55984745242169    3.62056851280311
C         0.60859416989264    8.37662006169322    5.66563429301122
C        -0.35286026373874    9.37396663700154    5.57343662169256
H        -0.12399683945247   10.30536524659893    5.06962871948608
C        -1.59661298801585    9.17608574913722    6.14279868595187
H        -2.33886957390000    9.95726665899727    6.08920773629586
C        -1.87434132225050    7.98940011123621    6.80159786598040
H        -2.83962257198638    7.84601556767692    7.26254379299251
C        -0.91563898203782    6.99229616291047    6.88416114294922
H        -1.13262170994064    6.07151410736909    7.40446932026847
C         0.33003678528957    7.18040722722011    6.31497993703803
H         1.09854454883571    6.42224313017005    6.38830911453587
C         1.65097794801226   13.02307497171024    6.76095517698946
C         2.72673763403059   13.84767987970565    6.47268076655059
C         2.55539431498192   15.16081022702613    6.04633978805054
C         1.26798197736622   15.66883889123003    5.90195081738882
C         0.17218904032117   14.85996833769703    6.18428054673304
C         0.38174602047262   13.55221806809296    6.61152762912602
F         3.96876367944592   13.36389405184511    6.59804953806655
F         3.61090626225192   15.93121646924896    5.77613662058221
F         1.08444018515346   16.92566065991617    5.49450140135560
F        -1.06742247244085   15.33916786171283    6.04972087181230
F        -0.68476257859083   12.78486672751251    6.88666960237353
C         1.23975780943224   11.73853010100738    9.14658243853397
C         1.89323404005651   12.64453807493193    9.96251695192316
C         1.36806024521582   13.05035046562556   11.18562016371471
C         0.14523700095436   12.53769784605336   11.60620468777255
C        -0.53259691952404   11.62586505793748   10.80307681591870
C         0.02461162196793   11.24018852712111    9.58796107268761
F         3.07066088561517   13.15172961949476    9.56538043155304
F         2.02579156064895   13.92684760882673   11.94925616503258
F        -0.37409196178262   12.91886665364518   12.77421594587270
F        -1.70573628536983   11.12901891810498   11.20045215852306
F        -0.63044183990540   10.35329089621062    8.82898479826100

