45
CSD_code = JABDIA | q = 0 | S = 0 | Stoichiometry = C18H14F9I2NPd | MND = 4
Pd        4.54444222957961    8.97689317763006    4.19463493118522
I         5.29060581169729   11.07030486583812    5.55758370313065
I         3.27794712626291    6.71660809533891    3.42678505223599
C         4.15447607816557    7.04963737599186    1.50112290743151
C         4.95992152975650    6.06140958360099    0.96496879974480
H         5.10949388349645    5.13456448318271    1.49552886851753
C         5.57853795804171    6.28219606338035   -0.25287677916879
H         6.21040179841672    5.51678295154514   -0.67505930422435
C         5.38765013938355    7.48142969050536   -0.91747236088848
H         5.87372144252743    7.66134845364738   -1.86374741708448
C         4.57080692328253    8.45345678889066   -0.37006657188172
H         4.41924852688914    9.38537966766205   -0.89506561465680
C         3.93397548490731    8.25811363455743    0.85232216685527
C         3.03081403100182    9.31615912096522    1.42179405579325
H         2.13046758284103    8.83900846089761    1.82882470702086
H         2.71288356959823    9.99028564610287    0.61024411688665
N         3.66062812925202   10.11251388335277    2.49135395941976
C         2.62326583213228   10.98264220413871    3.06256603320868
H         2.08964645053259   11.52793369130773    2.27316005322148
H         3.07097294069688   11.71011856730528    3.73881700770826
H         1.90616061707669   10.37948969650515    3.62940325853978
C         4.73776196153448   10.91830802086124    1.90245854389234
H         4.36573694535830   11.50964107240054    1.05486219028936
H         5.54256775017786   10.26375259724542    1.55383229062722
H         5.14724637387010   11.60288696977288    2.64506120783527
C         5.42080276400316    8.02652734059703    5.67563919941491
C         4.83105185010272    7.69126586630882    6.89403813348423
C         5.55016750191638    7.05948658784165    7.89793469162268
H         5.07380665865273    6.81648387470916    8.83618688806088
C         6.88882037279995    6.75703461864340    7.68830492327367
C         7.49937211462759    7.03428803504475    6.47104944418941
H         8.53228500035863    6.77010827698428    6.29996392893856
C         6.75866259265334    7.66368073954430    5.48642060017927
C         3.35668749792577    7.91966771631799    7.09967531655397
F         2.81681039196830    8.81915085575753    6.24360230682268
F         3.04130575593727    8.32071652573051    8.33014916390262
F         2.66441002284113    6.77695742494837    6.88065166867895
C         7.67681175564203    6.05026055383701    8.75596158486255
F         8.96210582498799    6.42667061292707    8.78031843129090
F         7.18760850193142    6.24828854880352    9.98416404337219
F         7.68294533058763    4.71501090428246    8.56214834424941
C         7.31923031406045    7.90764053073339    4.11523282923777
F         7.26389483585593    9.19192266175730    3.70466281506368
F         6.55802302027527    7.25825557482719    3.17992644174457
F         8.56851677641996    7.49201798776617    3.93893343942995

