101
CSD_code = JABGEZ | q = 1 | S = 0 | Stoichiometry = C51H47OsP2(1+) | MND = 8
Os        2.35502815556803    1.09283862082377    6.47107060282030
C         3.33506367173154   -0.46585530632182    6.00055308206073
C         3.95018360021475   -1.60390790581315    6.02165779045464
H         3.44141988432824   -2.41648054412927    6.53712612318069
C         5.28866767103669   -2.03142263645980    5.43667431591843
C         5.16820716225551   -3.47258908279461    4.93587882022340
H         4.94983341810574   -4.15470302306483    5.75462484830769
H         6.10290923295801   -3.78360984483375    4.47573706445390
H         4.37689519460968   -3.55849227680409    4.19388086895752
C         5.68420356700428   -1.11770506878231    4.27751011633961
H         6.68621493161714   -1.36544902792894    3.93590983306676
H         5.67062055248881   -0.07487819349832    4.58439559929042
H         5.00000501578171   -1.24239805534012    3.44120678216680
C         6.33157229977204   -1.95675204409159    6.55560398763058
H         6.05135410859529   -2.59977751460156    7.38703635322229
H         6.42484004721303   -0.93784262681126    6.92123486829215
H         7.29996706581984   -2.28197334214976    6.18300592822186
C         2.95638812950871    0.91970569589620    8.82042242685249
C         1.65734992619508    0.40332855996626    8.46719345949887
H         1.27064122321718   -0.55263639145593    8.79350752281894
C         0.84321199022567    1.52595383380864    8.11657241110280
H        -0.23300772819240    1.48432590908224    8.01828896570041
C         1.64131376223964    2.66802593856765    8.02927416244700
H         1.28562157443468    3.67782709563037    7.88430421679751
C         2.95235372281382    2.32941293806206    8.53062046187557
C         4.05955366767498    3.11595313594031    8.87530497804623
H         4.04073757564819    4.18333852451580    8.70743903499948
C         5.14416884183316    2.50717863209542    9.46152048193052
H         5.99852909624448    3.10175321003786    9.74714507607341
C         5.15888711011674    1.12799060044632    9.72249546451929
H         6.02592611142479    0.69631769067922   10.19862736652014
C         4.08326261716874    0.32993124525510    9.41467761563378
H         4.08385508485776   -0.72442645767679    9.64954382053117
P         3.49372855801349    2.70687548779987    5.17663444120175
C         5.31387545508231    2.59727046141615    5.24862317101039
C         6.09560288745300    3.29868363183584    4.33357912040622
H         5.62209714773166    3.87180859384585    3.54898592846942
C         7.47394048914405    3.25838527004431    4.43221563016683
H         8.07777281392993    3.79980140831960    3.72005318890937
C         8.08024661925549    2.53070163117173    5.44487930366170
H         9.15626587487437    2.50914142866945    5.52278916399294
C         7.30606816172046    1.83003498013160    6.35455913361257
H         7.77786594672722    1.26281805776222    7.14276581567390
C         5.92612119804065    1.85639111042378    6.25305191084744
H         5.31515943644586    1.29382364901556    6.94829554888857
C         3.22015420814533    2.73567623513069    3.37626302792747
C         3.26362886932926    1.49130477348171    2.75388108635985
H         3.42588656506229    0.61852976864382    3.37297179911047
C         3.09848563048442    1.38945976903061    1.38602966887082
H         3.12574666743804    0.42162588021557    0.90856006620862
C         2.89048547339952    2.53497086290565    0.63189453212721
H         2.75629313425312    2.46093892967257   -0.43639001589331
C         2.85877925687913    3.77568097040721    1.24749659479307
H         2.70686796268072    4.66694525962402    0.65731415504287
C         3.02437485415876    3.88386451209286    2.61830193867912
H         2.99869278880658    4.85638602247930    3.08860365708755
C         3.21564854724526    4.43880339780892    5.66814509077850
C         1.94534066157665    4.97668289944845    5.46963554809588
H         1.18134067618788    4.36999683187652    5.00597528706614
C         1.66845418534552    6.27437855540556    5.85433611784316
H         0.68227354316226    6.68280856433255    5.69092319651323
C         2.65494070221971    7.04508035849376    6.45072247868351
H         2.43937314846505    8.05737125575571    6.75607389718807
C         3.91732947981868    6.51347416913305    6.65489366831110
H         4.68689250127590    7.11178677774047    7.11914887572702
C         4.20167656540024    5.21400281889044    6.26931558402022
H         5.18968850946759    4.80780128722538    6.43259970157684
P         0.58119541072293    0.65576402911888    5.00924779624299
C        -0.22930751674641    2.19314411375564    4.45772371645831
C        -1.00413339350845    2.93639412485506    5.34758564086734
H        -1.16767683736155    2.57800695477642    6.35316222524409
C        -1.57862693768979    4.13038435995226    4.94975531200521
H        -2.18905959390184    4.68881720938029    5.64362022576576
C        -1.36868850433174    4.60839030790726    3.66589075260460
H        -1.81624208386011    5.54026622992355    3.35642102651309
C        -0.58194466066690    3.88660363315891    2.78236798017010
H        -0.41014031022558    4.25660066385766    1.78321294419696
C        -0.01286617479650    2.68737421148888    3.17246415389120
H         0.59240842520162    2.12565786876637    2.47734391629557
C        -0.73363485076110   -0.31954692270393    5.82367503252850
C        -2.09102631337731   -0.03783763638386    5.72953838787744
H        -2.43654190102722    0.84020710218519    5.20342127463066
C        -3.01137962495009   -0.89064089537492    6.31633910193315
H        -4.06479536184220   -0.66405773364011    6.24959636103947
C        -2.58861291174707   -2.02979829403070    6.97979667775161
H        -3.31184126541738   -2.68814953921482    7.43566256239445
C        -1.23632771358689   -2.32944683353839    7.04868412722509
H        -0.90668852219454   -3.22650093207821    7.55096552013381
C        -0.31343584892270   -1.47989162930534    6.47044175533352
H         0.74752486283592   -1.69861767729195    6.50411051367216
C         0.62915048526848   -0.36402468991397    3.49027720622246
C         1.64120170783668   -1.29221955945615    3.28099826951733
H         2.44846104378832   -1.35431347307821    3.99462294251883
C         1.60520877180573   -2.12345817730876    2.17512621577606
H         2.39846057567370   -2.83807199239777    2.01324539743569
C         0.55245198062269   -2.04511448196315    1.27901259931779
H         0.52646219505315   -2.69077530221019    0.41468637957489
C        -0.47747815110829   -1.14577461089183    1.50370103542092
H        -1.31099145467575   -1.09632475705756    0.81962443273555
C        -0.44808295670976   -0.31500572484287    2.60816153319744
H        -1.26477937308861    0.37027215514082    2.78394422057139

