46
CSD_code = JABGAV | q = 1 | S = 0 | Stoichiometry = C18H24N2ORh(1+) | MND = 6
Rh       10.68846324181245    8.53886516818185    4.76186676834021
O         9.92532139206852    8.27453828763318    6.60610785779178
N         8.90606562753215    7.62185375115959    4.28897471238466
N         8.20475498977496    7.96431746410417   10.27731562869638
C         8.45212718531657    7.24885419855133    3.09571576558070
H         9.08044381918990    7.46390714366529    2.24281617367157
C         7.23619373532442    6.61238213895516    2.91000186631405
H         6.92053837451095    6.33304719809535    1.91818660436983
C         6.44708110629533    6.34824383620207    4.01755731088175
H         5.49304377407584    5.85578995576978    3.91409767396161
C         6.91262190155414    6.72690435429453    5.26492866546570
H         6.31917906256430    6.52429884747873    6.14032056809533
C         8.14594340570653    7.36102439410011    5.37962839464028
C         8.76316889142428    7.78397839817228    6.66227939623865
C         8.08473864836215    7.63455662038539    7.89100769569076
H         7.09508666043687    7.21747551661540    7.90362617374601
C         8.69878379203824    8.03726161620409    9.05758672026979
H         9.69271062637873    8.45716171970817    8.96468866497576
C         6.89090632112278    7.41828767148113   10.52903138435570
H         6.12411936872527    8.01324833384345   10.02872876695702
H         6.69393150143979    7.42475200971819   11.59775329246926
H         6.82753562710741    6.38983814431587   10.16857458889038
C         8.94085510246959    8.43205478990287   11.42378962749323
H         9.91000281498722    8.82152187536227   11.12134433658729
H         9.09569587884757    7.61444414100610   12.13093683362324
H         8.38563811087680    9.22502771201925   11.92948321153161
C        12.14442048050999    9.98009383122214    5.43473428667551
H        11.70083301789795   10.43239373572149    6.32275723310405
C        12.66753578082337    8.70609351983315    5.55816115689039
H        12.63542923990560    8.23517972135263    6.54206976508031
C        13.64569081833004    8.06914344346553    4.60361267222784
H        14.64539519937129    8.47125203559792    4.79137063304223
H        13.68293809767836    6.99911072759225    4.82063590285769
C        13.26718896478730    8.26849736544007    3.12302562619981
H        13.71181528212763    9.18185927407665    2.73040060178024
H        13.67572662018450    7.43761494528680    2.54677949426124
C        11.76903618505768    8.31662958155971    2.91762059417166
H        11.36604983042337    7.44530331878438    2.40125673837621
C        11.03380066076015    9.49222848395254    2.88951723230627
H        10.10427880555038    9.51248578208354    2.31925350168840
C        11.59520866465444   10.87309372007456    3.13486502997362
H        12.11542413534273   11.21177049044192    2.23396491305534
H        10.75445974902068   11.55277767918263    3.29402807005998
C        12.54042353331963   10.95345010741304    4.34951669372635
H        13.57041552089397   10.76119786297044    4.05247906815676
H        12.50337845342921   11.96698908701862    4.75020210334221

