66
CSD_code = JABGAX | q = 0 | S = 0 | Stoichiometry = C16H37B10ClIrP | MND = 8
Ir        3.43016605319265    2.01566763828680    0.09495572811898
H         4.93979766894353    1.95369325013519    0.26507903690647
Cl        0.96975162762116    1.78969280374505    0.34851401332091
C         2.65419837737596    4.29810963878475    1.66722543249624
H         1.92400773846581    3.81331819119313    2.30109135631990
C         3.95087891788908    4.02696617083766    1.83465334411168
H         4.24639725572918    3.38556998347027    2.65624416838105
C         5.09494010442211    4.68875477462634    1.11450064968144
H         5.99302472006609    4.10226923503179    1.31204588354691
H         5.25464534173781    5.68262046286206    1.54797674191227
C         4.93986914006964    4.83297080636044   -0.41304172202982
H         5.94446161869420    4.88116397552179   -0.83737203995080
H         4.45116286492062    5.77987079329374   -0.65128650242829
C         4.18170345013929    3.72486323102772   -1.12067119153389
H         4.74224064111379    3.27493446939582   -1.93540648954861
C         2.79916263556867    3.67756230584366   -1.23046045288910
H         2.40008361778567    3.16439233257908   -2.10292030983835
C         1.80647131526093    4.67027496964871   -0.68056020474964
H         1.69313535062361    5.47185280823270   -1.42172627682437
H         0.84003182536853    4.16655416020831   -0.61234652168517
C         2.12072157394164    5.29620966742864    0.68916441877745
H         1.19407888743508    5.72157373001956    1.08338583111483
H         2.83458228847736    6.11310140792271    0.58033511923365
C         3.60038248337501   -0.95165539925991   -0.41610416426072
C         2.35285571142387   -0.55968562147337   -1.33297258672987
H         1.48212051697519   -0.17426634017939   -0.82266104096187
B         3.69587657419708    0.49581730144151   -1.37726361927658
B         5.05401210890995   -0.64915276889336   -1.26527414142182
H         6.00779581848076   -0.35022995892598   -0.65220348987045
B         4.41892250769831   -2.29360423545837   -1.10183451459217
H         4.95558594318827   -3.07609986918055   -0.40955954898211
B         2.66887757825916   -2.21662842198476   -1.11307993466734
H         1.94509934126916   -2.83039887331858   -0.42385156969811
B         2.16450000164176   -1.54810913474424   -2.68089896273808
H         1.07511976899394   -1.77944991044391   -3.05370960445549
B         2.79190306133804    0.11187767273165   -2.83176603415669
H         2.09511667954508    0.91691949420265   -3.32399404553337
B         4.56975653708775    0.04216802260690   -2.82815303271142
H         5.24418334849026    0.79887929993748   -3.41965558366410
B         5.01847765171739   -1.69906378755983   -2.67269166831201
H         6.00774677025035   -2.12331742846329   -3.14404282152434
B         3.52504432750256   -2.67602954738991   -2.58775820476691
H         3.46424333761005   -3.77030195327249   -3.01204432230165
B         3.61211914573307   -1.22904928052355   -3.65559187674465
H         3.60144156872384   -1.33646154456162   -4.82579810939445
P         3.44085892733473   -0.05184290481996    1.20962567416005
C         5.01050433693292   -0.42875311549518    2.17706798134712
H         5.76883666585405    0.04242900106211    1.54298488243457
C         1.97937948491415   -0.85689529549037    2.06399121243806
H         1.20363444890924   -0.87463129979866    1.29037026142702
C         4.97687680267003    0.33871839234483    3.49691227558332
H         4.36050981527877   -0.17293327735533    4.23310012811852
H         4.58013741235223    1.34090889842169    3.34574494711577
H         5.98096375143374    0.42644330056028    3.90848355476633
C         5.43475057519730   -1.87392480827823    2.41283659208569
H         6.47770745476106   -1.88453904960196    2.72585270907123
H         5.35306167722153   -2.46810073686649    1.51053085034964
H         4.85451026674895   -2.34405559030232    3.19993241741778
C         2.21278094239061   -2.28212422723692    2.55464817426659
H         2.74115271249587   -2.28049956622743    3.50464604345418
H         2.77613462141551   -2.87302322712649    1.83688583847206
H         1.25214463555721   -2.77009369695134    2.71569701017574
C         1.46288711225477    0.03674058076635    3.18814496294742
H         0.54028546154809   -0.37550127554956    3.59455364589109
H         1.24543782900351    1.02863388645406    2.80003565729876
H         2.18115126844700    0.12659948985296    3.99938404550327

