44
CSD_code = JABGUP | q = 0 | S = 0 | Stoichiometry = C16H24Cl2SiTi | MND = 12
Ti        5.03286846650348    7.87470208831927    9.46636319583743
Si        6.19141499915723    4.46684913231972    8.46548626175204
Cl        3.89828897749010    6.97504009315766    7.78221677626693
Cl        3.11969517985876    8.71463176230623   10.27524905998558
C         5.80592665665597    5.73768028514750    9.80974103989023
C         4.57904724690130    5.83491430226792   10.52526523892540
H         3.69408106332959    5.24109360535695   10.33304776529268
C         4.74535967845260    6.73223586106981   11.59535948240470
H         4.01259615615664    6.95590298433219   12.35960097362141
C         6.05666962087514    7.23928227832139   11.53711474082138
H         6.51163952006227    7.88414353095982   12.27874198477096
C         6.71517887997093    6.60918531467317   10.45676648071969
H         7.77194008136242    6.68476769352354   10.23981040325174
C         4.59291314602245    3.59349397574850    7.90169835721134
H         4.11365449762863    3.05923715108373    8.71633908858644
H         4.79961791069333    2.87588760935254    7.11429493488866
H         3.88161978480623    4.31354063150129    7.51192123916473
C         7.02167402293014    5.35854618108047    6.99118027322353
H         7.99463891405381    5.76722587088690    7.24893562131995
H         6.38914440925065    6.17390999911818    6.64854733275421
H         7.16497013596376    4.67996433628772    6.15678856274525
C         7.39248174984532    3.15105420535218    9.23594041277562
C         6.70542202073329    2.42977216851851   10.39744044838064
H         5.83024419841704    1.88613798739773   10.05221496172403
H         6.39184822076040    3.13858769353317   11.16119575112367
H         7.38742244233597    1.71403128245175   10.85543200649360
C         8.67655731446827    3.79217932723322    9.76386149921927
H         9.18634543315585    4.35056291819769    8.98230596420436
H         9.35856498495628    3.02302645978338   10.12558983504449
H         8.45898442266118    4.46190238037489   10.59185405900364
C         7.76752173414610    2.12401243185239    8.16849678280531
H         6.88257308868129    1.63001404143129    7.77722684914079
H         8.42269673179018    1.36136506423710    8.58830258595379
H         8.28805327918221    2.59967257422526    7.34147269704207
C         5.05647567540385    9.94954171357156    8.30782096275593
H         4.16628257004550   10.43126796628279    7.92319744843658
C         5.62985261458748   10.16381948884144    9.58203251925609
H         5.26005230395655   10.85015234537229   10.33262745651089
C         6.82548408974827    9.42872831859555    9.64838519887869
H         7.56048343951880    9.48824907470513   10.44011191925084
C         6.98511489953300    8.73923486857721    8.42260813676811
H         7.86421963251696    8.19068469515508    8.11341047224578
C         5.90383738440575    9.08490006598955    7.58854639605196
H         5.78594242102983    8.80706824150345    6.54905682350293

