56
CSD_code = JABJUR | q = 0 | S = 0 | Stoichiometry = C29H18N2O6W | MND = 6
W         9.58075044920961    9.25713208608463    1.37993311116844
O         6.67846850069292   10.08019620020698    0.50456541802534
O        10.79364198021633   10.59658277372611   -1.17671919238492
O         9.38651582198553    6.74910264425352   -0.48902468762809
O        12.51998934617958    8.39907159440859    2.09286241352758
O        10.31115238267713   11.92483217601471    2.87419217584497
O        10.50903998567309    9.08479177197409    4.21258901372808
N         8.74834224939726    8.36914421071910    3.14094492918717
N         9.44639767878835    8.42750629554467    4.20429452016074
C         7.73356050481727    9.80460867779103    0.84923562447190
C        10.35054965527788   10.10688133838984   -0.24001173170988
C         9.39168286689118    7.61187897516481    0.26361767865073
C        11.43423275654659    8.68344898774092    1.89737712989922
C         9.97559464013334   10.94886970870325    2.39210719765511
C         7.43742160940403    7.87493256704471    3.21936022873873
C         7.03627617339522    6.89846321949878    2.30935113515927
C         5.74963445782262    6.39899897195333    2.32300560603858
C         4.83667999849763    6.87054246058533    3.25151539278735
C         5.21424062153002    7.85996950196066    4.13795536981372
C         6.50278510142992    8.38758456443245    4.13690839496175
C         6.79541351164390    9.52577910542237    5.02577371560723
C         6.40616027791544    9.49582684746920    6.36306121697358
C         6.64513270798256   10.58052695696356    7.18611355072107
C         7.27311624137768   11.70971176806311    6.68664470996793
C         7.64683207664677   11.75581015130358    5.35376716675159
C         7.40499383303629   10.67422367979054    4.52736126238719
C         9.13032761975439    7.71429373646014    5.39738756147333
C         9.17163731687786    8.41081443301180    6.59710520926130
C         8.88288774535720    7.75725114223807    7.77913721305934
C         8.56325289435697    6.40854089757970    7.75669910566725
C         8.58509913991810    5.70622178159178    6.56604490380680
C         8.89354306325106    6.33571244304743    5.36245229210633
C         9.06460391229669    5.54420122092064    4.13425035441666
C        10.17943324182881    5.74762339381010    3.32076255851871
C        10.35762803025473    4.99138233789155    2.17669318071741
C         9.43118372828461    4.02076404080028    1.83254328595848
C         8.33343071585347    3.79728137976981    2.64733069154147
C         8.15058378948212    4.55092572798246    3.79197264359545
H         7.75561467051242    6.52195003419179    1.59864910537867
H         5.46362740626723    5.64191481522420    1.60962946632014
H         3.82907643987783    6.48454879802871    3.27099250052206
H         4.49286379204998    8.26553470717556    4.83166917418629
H         5.93344627705007    8.60859371166135    6.75918505291873
H         6.34164243303104   10.54372373548179    8.22194032739037
H         7.46417435946839   12.55387488162124    7.33194489390448
H         8.12547255452553   12.63646837440617    4.95297024189584
H         7.66497244540369   10.73074306434127    3.47737914632008
H         9.42413241735080    9.45961739815077    6.58216726600878
H         8.90538186544372    8.29850264981870    8.71162143163173
H         8.32572762763261    5.89461380906685    8.67572974858877
H         8.40054812857018    4.64261843243942    6.56296951551554
H        10.93419332586193    6.46722852895903    3.60510247664006
H        11.22596566763728    5.15816976032201    1.55695366167180
H         9.56866804255110    3.43672929904137    0.93533143635290
H         7.61436561876007    3.03441751844399    2.38854457665254
H         7.28151030131691    4.39082071131470    4.41325962747428

