55
CSD_code = JABTIS | q = 0 | S = 0 | Stoichiometry = C24H23BrCuN2PS3 | MND = 4
Br        2.27968535713631    0.46972037990640    7.73628053629728
Cu        4.36424977893793    0.83105446624575    8.52745325816501
S         5.19814767362541    2.96837427864392    9.11328837239166
S         7.92166026843696    3.75188712452135    9.92890522609088
S         8.08590243501770    0.34336375607228    6.03442044403385
P         5.34423391972224   -0.46209739561196   10.14594434649960
N         7.50134078190278    2.21122905822086    7.89520772129039
N         5.73237298109956    0.95803776672148    6.97247589530564
C         6.96161879468065    1.26937708656210    7.07310738112616
C         5.44938974011470   -0.11099978935495    6.05770579386522
H         4.56428465526866    0.15269842125439    5.47324785508926
H         5.20225912041659   -1.00524156038954    6.64582310187941
C         6.66366851808072   -0.36636385017539    5.15378104792539
H         6.57975611721412    0.14705646016365    4.19562947562994
H         6.84358699576252   -1.42498414729429    4.98496765855034
C         6.81889367864604    2.88172242673776    8.87952850658988
C         9.28445926263227    3.60232415932274    8.72815364975561
H         9.29847014042646    4.51211454856314    8.12764740764480
H        10.22352919195806    3.50113666062294    9.26492407830114
C         8.94999433825249    2.37167896746885    7.90639389018090
H         9.30608100409269    2.47788065770243    6.87796744756448
H         9.40230702889602    1.47196698581710    8.34193845919208
C         5.14008944885317   -2.26612565757655    9.98258339791175
C         3.95639778151041   -2.68901585665633    9.38158812732717
H         3.24470779352052   -1.95812898821841    9.01932903212417
C         3.69138078049590   -4.03935425530691    9.24715399424343
H         2.77235721428929   -4.35944524656378    8.78031178278840
C         4.60599806242549   -4.97232679261659    9.70776484499324
H         4.40255669387055   -6.02760600460507    9.60169269624644
C         5.78436235404931   -4.55364093370547   10.30510491897033
H         6.49664690620200   -5.28177985156078   10.66582666990939
C         6.05565162362642   -3.20503276947348   10.44680649724599
H         6.97891923865705   -2.88657501950398   10.91128205322981
C         4.58932544790641   -0.19098759723874   11.78037294497359
C         3.53199807995531    0.70654337067095   11.87317852527010
H         3.20040329656777    1.23766813446056   10.98950177883455
C         2.90889962218884    0.91699427198420   13.09059250207905
H         2.08686593754264    1.61323737811932   13.15980160293923
C         3.33964430989874    0.23099632028681   14.21320919163924
H         2.85351787410921    0.39278626555001   15.16389579744323
C         4.39183453838855   -0.66838309849655   14.12141309079414
H         4.72262522913223   -1.20479908059661   14.99893772993827
C         5.01642508870249   -0.88554226369685   12.90880532087307
H         5.83317534640619   -1.59007546262051   12.83210128890992
C         7.12040394872235   -0.24961670189502   10.45969986108921
C         8.02860750862962   -0.82919789414481    9.57352922838446
H         7.66486197113107   -1.47110829919237    8.78076492913285
C         9.38385080878060   -0.59853851734663    9.71605314362000
H        10.08300893593976   -1.06617355905782    9.03715908099623
C         9.84308208335784    0.23302478440655   10.72836485697325
H        10.90282377630619    0.40970197776974   10.84125793706971
C         8.94160024848728    0.84411639557098   11.58465696213994
H         9.29531894967475    1.50739705687607   12.35997920962488
C         7.58454232322201    0.61205896197450   11.44950269923942
H         6.88072499580971    1.09669246835860   12.11198675032402

