24
CSD_code = JABXIU | q = -1 | S = 0 | Stoichiometry = C5H10Cl4IrN2OS(1-) | MND = 6
Ir       13.23690192361538    9.29197599912387    1.58954594619352
Cl       13.85296051916480    9.66610617711401   -0.62832840625369
Cl       11.68038626478072    7.68483384258924    0.88856996136032
Cl       12.64441553845474    8.89534443661822    3.84667420587218
Cl       14.81269972517402   10.89932506338439    2.26861876616757
S        14.77096540586487    7.63315190457094    1.93186769124938
O        15.67400006793118    7.20494587891448    0.87796080678038
N        11.87280573462132   10.74470196541279    1.38561159816733
N        10.96760000153104   12.63968309923280    0.80554784665926
C        15.82302870011029    7.97947186182720    3.37834345662280
C        13.99441825737633    6.11502088381162    2.57170641138327
C        12.08477670516814   11.89250787298872    0.77832088682417
C        10.00507503430213   11.92631151725866    1.46236373323149
C        10.58086460956425   10.74597105832740    1.81973175432983
H        16.47547597301204    7.12789639493750    3.53372583308427
H        16.39711804706327    8.87242626923736    3.15468199682021
H        15.17081439184415    8.15999208876276    4.22474255601170
H        14.77955799609776    5.40420534868720    2.80251617660096
H        13.41210729007553    6.38664397927813    3.44431501484963
H        13.34098347320932    5.73403793537499    1.79418267140296
H        13.01271577618401   12.17723129730848    0.32199599617448
H         9.01591071505626   12.30349675875866    1.61906842932096
H        10.17312613421071    9.90568344151221    2.34580879619658
H        10.86379171558790   13.55783492497030    0.40672787095092

