45
CSD_code = JABYAN | q = 0 | S = 0 | Stoichiometry = C20H18Cl2O4Ti | MND = 6
Ti        0.24277625361105    1.83927633451516    5.90943299060903
Cl        0.88168496701541    3.42769358960330    7.33927222021400
Cl       -0.28196638520880    3.28020453319622    4.28945959918857
C        -3.88591734576533    2.11879727299058    9.20913954785577
H        -3.64379433188729    1.24408865855792    9.79320785551047
C        -5.03459987258301    2.83570765066900    9.48770656947524
H        -5.67471930792939    2.52800528037316   10.30135888266224
C        -5.36858046605619    3.94521769320593    8.72661417637059
H        -6.26489611010055    4.50332670849470    8.95327437513064
C        -4.55562249152422    4.33499454045546    7.67384347901832
H        -4.81508974793575    5.19834318082250    7.08007148448700
C        -3.41204020902603    3.61734257589023    7.38187339036449
H        -2.76041964710116    3.90970172359048    6.56717162586643
C        -3.06292696485434    2.50656756864169    8.15335043903596
O         0.65744671851599    0.50007761976369    7.26354613480752
O        -1.45019267002478    1.87399934056160    6.57210562990474
O        -0.27887178045786    0.37514964674158    4.73246219422390
O         1.92956377767692    1.66189132221388    5.25428209623276
C         4.00572613744361    3.14655914340682    4.24326445783785
H         3.38457242646514    3.57930641216779    5.01835418898134
C         5.19483294031881    3.74032601002844    3.86716640408020
H         5.52124526717014    4.64649930549770    4.35456023656454
C         5.96734952595777    3.17172171688593    2.86661293609712
H         6.89898264586432    3.63313721370257    2.57437394838658
C         5.54727994694600    2.00744642634876    2.24228694485300
H         6.15559565074788    1.56089047801277    1.46962482122466
C         4.35312176589777    1.41303603978163    2.60519368778790
H         4.04339455380615    0.49551824249623    2.12867532627374
C         3.57038082667084    1.98075726388447    3.60889500506160
C         0.14288813671990    0.47860556736492    8.41742816242994
C        -1.06391843549567    1.11342794140419    8.74929345177883
H        -1.40202190590663    1.08055703257592    9.77145761267063
C        -1.81606003824881    1.80141407498041    7.79418814986636
C         0.22465891028775    0.17348745440788    3.59118720192010
C         1.47181815124873    0.67303239417702    3.18546238424653
H         1.79858256986435    0.49088208243558    2.17540072755969
C         2.27927777752352    1.41580380535549    4.05012938835137
C         0.88329492039733   -0.26550769808953    9.49900822926595
H         1.62614748626900   -0.92109543785365    9.05078103215033
H         0.20195171931205   -0.83661179011709   10.12331679475534
H         1.39590668193784    0.46408402321478   10.12497284858553
C        -0.57555452603079   -0.64289308589336    2.60890219885364
H        -1.36187614378788   -1.18048475879564    3.13354178027018
H         0.05771142979303   -1.33652087326046    2.06302412229941
H        -1.03682280754657    0.03863577559025    1.89502526688543

