53
CSD_code = JABZES | q = 0 | S = 0 | Stoichiometry = C25H22AuO2PS2 | MND = 2
Au       -2.39985053576176    3.84417462488765    5.55401727435076
P        -3.66598782418936    2.15231621028689    6.37964122619125
S        -0.86266779209320    5.56335337660181    5.15135520573259
S         0.39068286589679    4.32879118476966    6.14928673212396
O         1.75457607031349    4.76973219640547    6.11384303878551
O         0.13275582510427    2.96225186041143    5.71368671255103
C        -2.62252463827619    0.88882205452023    7.14978261358281
C        -1.56980159182285    0.40732300664989    6.37356141621036
H        -1.43629008784397    0.77970044357199    5.36730802054923
C        -0.68734778194471   -0.51157175465979    6.90743664065644
H         0.13354638978572   -0.87717280133115    6.30986758049820
C        -0.84597890232315   -0.94478345410775    8.21557652956522
H        -0.14918774656416   -1.65450201401150    8.63632939323061
C        -1.89011774182482   -0.46307794886450    8.98806183026489
H        -2.00911612995312   -0.80086061250540   10.00752118931420
C        -2.78075596319448    0.45657569821826    8.46154926749363
H        -3.59094099453997    0.84132626142309    9.06583423078722
C        -4.78036293870689    2.67189552152009    7.71297872675725
C        -4.32837139654085    3.69397016145179    8.54408184829234
H        -3.36398995342909    4.14695447478471    8.35051211385154
C        -5.10935096336814    4.12165978791708    9.60072715743436
H        -4.75523867382626    4.91262514589657   10.24434154548824
C        -6.34864061313004    3.54114902681231    9.82350234943002
H        -6.96222729499358    3.87882955208226   10.64527736132188
C        -6.80583558442440    2.53366065094785    8.98934519200345
H        -7.77437622001873    2.08777828679392    9.16116549725082
C        -6.02591528245916    2.09427924279066    7.93392463856368
H        -6.38056824342567    1.30877225567557    7.28127258949780
C        -4.72376026378806    1.22803619766146    5.23328260427263
C        -5.35624531303068    1.96042060862414    4.23201355359470
H        -5.18693967365213    3.02850992216418    4.17588687734491
C        -6.17877631581794    1.32055920611272    3.32424058940808
H        -6.66958520862954    1.88755005804966    2.54763164382606
C        -6.36363635365043   -0.05102132592738    3.40713100319278
H        -7.00067368112398   -0.55234336173427    2.69402911289697
C        -5.72726221634949   -0.78249222622294    4.39718990287860
H        -5.86968208831504   -1.85150133537781    4.45542030048526
C        -4.90584962733004   -0.14890141252080    5.31262483223434
H        -4.40405565996703   -0.71622612551382    6.08462262155215
C        -0.20248768845912    4.40742929428916    7.85617400934946
C        -0.41279966914803    3.22643856309741    8.54022108021539
H        -0.16707431966166    2.29303691170327    8.05810831335521
C        -0.94168141711984    3.26838647561696    9.81753191927565
H        -1.11569075925374    2.34736639310719   10.35499342782948
C        -1.25812577471192    4.48573718490602   10.41398790497279
C        -1.02346022129075    5.66201804426655    9.70997510135481
H        -1.26013323637848    6.61361423231937   10.16329857201793
C        -0.49633124937226    5.62726960830253    8.42950967400173
H        -0.32738790391424    6.53309299586386    7.86717273869840
C        -1.83430861664614    4.51507014407839   11.79679547578821
H        -1.06674640816155    4.25407444496818   12.52512957892499
H        -2.64159334235451    3.79005808026028   11.89039603461738
H        -2.21442924832589    5.50364498295159   12.04164520611461

