73
CSD_code = JACBOH | q = 0 | S = 0 | Stoichiometry = C28H34N8O2Pd | MND = 4
Pd        2.58964736462918    7.53038307289747    6.40703491930173
O         1.39804693984147    7.10092391197695    4.74341657643080
O         3.24638960420510    8.15677971827392    8.29059287934099
N         0.07915345252863    8.00838677478826    3.09071349757351
N         3.01485327099474    7.83814734237233   10.55749070576903
C         1.00198807074864    8.09263168610843    4.07040142363448
C         2.85832364401721    7.46341401485705    9.27148862936692
N        -0.14737794127888    9.20986817035095    2.48566197506715
N         2.55331254297885    6.89858301497239   11.43229203780153
C         1.40664588580829    9.48106293796671    4.08844702569284
C         2.24286813480317    6.15595245880692    9.33231656515831
N         2.36007785383446   10.04503982335670    4.80560874573836
N         1.98525042038145    5.32844615130190    8.33697922041992
C         2.09321321949189    5.90009949631895   10.73443375108833
C         0.62163196666991   10.09196417141216    3.05674440755678
N         2.19441554515565    5.67096043725394    7.12590418510583
N         3.01414670673470    9.37812183504170    5.67469432222439
C        -0.57956182451213    6.79855060532548    2.65097575735969
H        -0.37271427188037    6.05314747596024    3.42885576932563
C         3.65422329577363    9.05334342069067   11.01102357257224
H         3.72179943566703    9.69700233247319   10.12516165148582
C         5.05936632801071    8.73632551562141   11.52053869748172
H         5.65176225479514    8.28522752193947   10.72777199750743
H         4.99795002164770    8.04105060339361   12.35415239135332
H         5.55173564948198    9.64672981264933   11.85073077244232
C        -2.07885090575766    7.04724487454842    2.53036073701667
H        -2.49120838896377    7.35170634718148    3.48914659394208
H        -2.58229223879526    6.14218658364247    2.20262633844379
H        -2.25626948558949    7.83999635068449    1.80886511839353
C         2.79947184788382    9.71047732034922   12.08868384491176
H         1.81414864771445    9.95103188274997   11.69729309933785
H         3.27319702547193   10.62481028642191   12.43460447801588
H         2.68312496886659    9.02605359940194   12.92451630834883
C         0.02400971341520    6.33588052048809    1.32585301368621
H         1.08893716310645    6.14973473258561    1.44450476041527
H        -0.11766497646126    7.10551900916467    0.57111627340382
H        -0.45669015183658    5.41927410114311    0.99575566743895
C         1.49593830945936    4.69032256940770   11.35057451389249
H         1.60782290368104    4.73706062020513   12.42960074112719
H         1.98538208909107    3.79847744422679   10.96426632701686
H         0.43793508084580    4.62781413561090   11.10006393053818
C         0.64031146149355   11.52229970539780    2.66491588284814
H         0.02339887432158   11.66732004590349    1.78317179440638
H         1.66185215056002   11.83650569130515    2.46019964062075
H         0.25662083662239   12.13691768917626    3.47803085233706
C         4.06770773425414   10.03257052530865    6.31442082731092
C         1.99561376189934    4.69757382862634    6.14650002938104
C         5.19238466092289    9.27385406181580    6.65262723698557
H         5.22316630969788    8.22023338669307    6.36168462959585
C         1.00453127849057    3.72251056859753    6.23986754549274
H         0.37128003391853    3.69974362113214    7.11403775099874
C         0.82632875151758    2.82711756104551    5.20424168572774
H         0.04307275583914    2.08545559518788    5.27143341355562
C         6.23555216725052    9.85843075687721    7.33771292919452
H         7.10035876705636    9.26829319489534    7.60567483947994
C         6.19106844574306   11.20416196017757    7.69445216051659
C         1.62938140748026    2.87012589706277    4.06972398095745
C         2.64080249274870    3.82449144954216    4.00153360016003
H         3.28247051550479    3.85597724785068    3.13247935561341
C         5.08341346307224   11.95742227137089    7.32352040396150
H         5.04055982035323   13.00459002134003    7.58739756283562
C         2.83023288109519    4.72803241245930    5.02538330997080
H         3.62843734600216    5.47494858146177    4.98340035372181
C         4.03088142086458   11.38788314458200    6.63412061263071
H         3.16303793940274   11.96864045431549    6.35962261249753
C         7.33014767089869   11.82544265326375    8.44358974369793
H         7.01601789099537   12.73859371170017    8.94344706788256
H         8.13786324192948   12.07638225761101    7.75478414145988
H         7.72687233919220   11.13482339337309    9.18498084747408
C         1.42827025948723    1.89167001192803    2.95305465738610
H         1.74305745593664    2.31686567283555    2.00292785982751
H         0.38444213897067    1.59544048660922    2.87980092520845
H         2.02052455363818    0.99364945597420    3.13299852343229

