41
CSD_code = JACDEX | q = 1 | S = 0 | Stoichiometry = C8H24AgP4S4(1+) | MND = 4
Ag       -0.05809492887021    1.67185453939588    3.56311936563885
S         1.10991872675531   -0.46221036950168    4.66787091132950
P         2.40506592891373    0.89674555646335    5.23547554635050
C         3.51499366482657    0.26103067336797    6.53678237253531
H         4.00083166804458   -0.62667442270956    6.12814466499829
H         2.92912802162451   -0.03679880690443    7.40613764375208
H         4.26744315430633    0.99659561120975    6.81492863587460
C         3.49833572646876    1.53302937816641    3.91867057897706
H         4.18971066066502    2.27666493068235    4.31394852295850
H         2.89573693197717    1.97455187150572    3.11866091572579
H         4.05456344775334    0.68613613913634    3.51232744707959
P         1.41665263360303    2.77098645395231    6.02107181781322
C         2.59358128203494    3.59825732239714    7.14332279328361
H         2.08236403259982    4.47665936938006    7.54098757461302
H         3.46473143713739    3.93250958705869    6.58025381829702
H         2.89282854755250    2.94558462985717    7.96126329690577
C         0.09105837712624    2.11461900009651    7.09192332192381
H         0.50342042544798    1.47801968996907    7.87414666551995
H        -0.62486588619928    1.54629476295914    6.48959332650599
H        -0.42480805368837    2.96670225079118    7.53873281405884
S         0.82209307477707    3.97275810587128    4.58978735663155
S        -2.68409883279651    1.50457837380850    3.99585109544293
P        -2.66333816976596    0.86900855264965    2.14037785286966
C        -2.00381051271476   -0.81639493955366    1.89850293819245
H        -2.61187660154519   -1.49892426959719    2.49528045854853
H        -0.96981859116485   -0.86351007682728    2.25470779553248
H        -2.04628541245478   -1.10257420796817    0.84802380199483
C        -4.34135503568505    0.85310807482187    1.42402807944162
H        -4.34225145802180    0.45191939055002    0.41240764928620
H        -4.75601258733593    1.86084021952742    1.43794250244258
H        -4.95123104468772    0.22095571410332    2.07184085717744
P        -1.34283159188835    2.12423630206356    0.80275373692186
C        -1.77606694555356    3.82966623123723    1.29046439339874
H        -1.20245139159768    4.51032530304381    0.65848092111979
H        -1.49523134040179    3.99843003254296    2.33492142119121
H        -2.84251370575033    4.01147751981701    1.16047164261209
C        -1.93377654086909    1.93489344368906   -0.91298217413398
H        -2.97484085078577    2.23580924473774   -1.01356579870455
H        -1.79916182857314    0.90292093334410   -1.23633439060034
H        -1.30342039984246    2.57506595982806   -1.53269257158755
S         0.55648396865629    1.66265192552958    0.96177039803856

