35
CSD_code = JACFEY | q = 0 | S = 0 | Stoichiometry = C12H16Cl2O2PtS2 | MND = 4
Pt        0.00001830964305    0.00002966182428    0.00003184299543
Cl       -0.11577948049357    2.18599586058953   -0.75334756002837
S         2.25748918048902    0.25699715077373   -0.08668435437776
O         3.10709316977195   -0.85004288255611    0.29527985105637
C         2.72241102071874    0.73496568163414   -1.78286992619369
C         2.12332981336552   -0.34728811168457   -2.68873376301897
C         2.46986235335470   -0.40622878516186   -4.05756043531610
C         2.72090120438497    1.67883075255408    0.95493586446593
C         2.11754196315124    1.38704403361202    2.33387257323806
C         2.46089942469041    2.18633139220514    3.44758532705104
H         2.26471633793473    1.69997254393404   -1.98829441510782
H         3.80638000443395    0.77692704831027   -1.85746873694680
H         2.56584114367237   -1.33410094211713   -2.42616044568476
H         1.02804343988694   -0.42858741429463   -2.45914171134308
H         3.80481856792797    1.75631988849574    0.99096167370953
H         2.26593289286891    2.56575776832719    0.52001650117535
H         1.02247941921106    1.18233524198525    2.20039882772801
H         2.55791929841988    0.44822013984125    2.73752718040736
Cl        0.11582997579758   -2.18608323481989    0.75303197725447
S        -2.25753982322128   -0.25700435683103    0.08677870559216
O        -3.10704686030082    0.85019175113713   -0.29496162014776
C        -2.72250072842893   -0.73526943230826    1.78293445571884
C        -2.72108234848543   -1.67851792230867   -0.95521705213615
C        -2.12281922495027    0.34636979044320    2.68913468703797
H        -2.26523545242528   -1.70056323747688    1.98799525231934
H        -3.80646011837304   -0.77670358246730    1.85769370585040
C        -2.11790913000699   -1.38618106263724   -2.33412560544922
H        -3.80500194198425   -1.75608638885062   -0.99113519630766
H        -2.26598770451489   -2.56558852425654   -0.52069746346107
C        -2.46865724347506    0.40463660232189    4.05800224068785
H        -2.56519748269806    1.33343942105570    2.42739484949206
H        -1.02764712041308    0.42765956212301    2.45903482884393
C        -2.46136600211483   -2.18504597010218   -3.44811016386515
H        -1.02286364035495   -1.18146669207647   -2.20071117569067
H        -2.55841321750818   -0.44726575114641   -2.73739071963685

