114
CSD_code = JACHAW | q = 0 | S = 0 | Stoichiometry = C61H48O2P2W | MND = 9
W         1.08059782364542    5.01888486573878    1.71929662499154
P         1.97978639299844    4.37710446753859   -0.44286056314253
P         4.41248658584781    3.01753581872927   -1.75759560028979
O        -0.80168006254433    4.93436529397913    0.68782679738012
O         3.05598428349053    5.82105777844068    1.75926557577490
C         3.58929531661513    3.50990440328082   -0.15829148616737
C        -1.90944137085465    4.97733135703814    1.38103229088578
C        -1.83748483510324    4.79704573665104    2.79266577158441
C        -2.94936825390667    4.95242500072024    3.59861268400541
C        -4.17246059740323    5.24146858817213    3.01828121436516
C        -4.27333094284658    5.36228613776395    1.64214444444625
C        -3.17407860116789    5.23919742638805    0.80023991768196
C         3.15942992730599    6.83704322552684    2.59161408974037
C         1.99763404060909    7.57096624996353    2.93071509275812
C         2.05884235853976    8.56057041346422    3.89954271837683
C         3.25134155339901    8.83176296365848    4.55118409261474
C         4.39507061900204    8.13334361836992    4.21224326573573
C         4.37762980219699    7.14957866712547    3.23007530033368
C        -0.48744251168893    4.37973097646933    3.18796515052730
C         0.41544670582696    5.00217216361424    4.07486883710211
C         1.76485393163601    4.67722766215148    3.98316936312878
C         2.22898516677229    3.60329254114321    3.13230086540173
C         1.27254287290268    2.73605180034955    2.56735842859809
C        -0.05518972955542    3.13735174196287    2.54575057569293
C        -3.30359611940288    5.43143658002272   -0.64996918126940
C        -2.52707520708208    4.69841356452326   -1.54505648954684
C        -2.62767613160397    4.90517722558746   -2.90770155485004
C        -3.51173153395485    5.84584570896672   -3.40826649236781
C        -4.29542894870151    6.57705386842155   -2.53094311461407
C        -4.19214291021659    6.37425444709778   -1.16791318223641
C         0.78200210170739    7.26824110381609    2.14536736864582
C         0.94582942609801    7.16211697850086    0.70976151426825
C        -0.16108157236265    7.51680255169959   -0.11328026302100
C        -1.37918191172701    7.82760288429414    0.40972987310393
C        -1.55455841471786    7.87405936959227    1.80745596504605
C        -0.50208801365322    7.64249396149713    2.64006713716674
C         5.60281364882056    6.42029955896274    2.87589212253808
C         6.45067693395223    5.91745874400511    3.85902183730606
C         7.60737711951469    5.24401068749334    3.51137742004482
C         7.93599577743684    5.06622157033257    2.17831443651036
C         7.09923804431682    5.56288938626679    1.19248347913561
C         5.94106398772487    6.23151615224682    1.53848864719096
C         2.42282641818660    5.60094279374489   -1.71741062260115
C         3.69475121864132    6.14810034505329   -1.83985507818157
C         3.94641073332249    7.11082945752442   -2.80251427458730
C         2.93385815040604    7.53592925295183   -3.64588379837387
C         1.66130248369777    6.99934951131121   -3.52420099193484
C         1.40347362652573    6.04176141568747   -2.56141914977151
C         1.10915949885889    3.15780396221455   -1.48737995244709
C         1.46356643302668    2.93842905731847   -2.81601592809206
C         0.84548237586670    1.93893811278572   -3.54509183495398
C        -0.13847932685877    1.15495793205258   -2.96579604217087
C        -0.51200433844755    1.38070357679413   -1.65216356895118
C         0.11186087823445    2.37535637247278   -0.91937126192258
C         6.14944504028113    2.92582149182527   -1.16217189561000
C         6.51676986010482    2.20080995240620   -0.03376952831208
C         7.84590506827743    2.11724768025530    0.33286262821763
C         8.81962635731735    2.75142198217668   -0.42324686081747
C         8.46051115324655    3.47941543142752   -1.54424147500488
C         7.12844143664271    3.56634101602731   -1.91144926782373
C         4.12407660089941    1.20552177652117   -1.80131261061579
C         3.09003980665926    0.53484627395169   -1.16199229746895
C         2.92693021792194   -0.82832956897335   -1.33757951615214
C         3.78770407052842   -1.53808310553606   -2.15550756576984
C         4.81487140247884   -0.87541141331018   -2.80855622017169
C         4.97489024867566    0.48514381028147   -2.63869022873918
H         3.41827935684184    2.65071242716048    0.49483700376832
H         4.23303490281214    4.21677983844489    0.37486439832529
H        -2.86063688587813    4.82328152173625    4.66866903475133
H        -5.05084655172562    5.35410938230809    3.63573908030459
H        -5.24312001875827    5.54992160584380    1.20386914945012
H         1.17406870768761    9.13421954267399    4.13466321398484
H         3.29016880081272    9.60010458524467    5.30862418458026
H         5.33160026966888    8.36170177638902    4.70089023206801
H         0.08117000979128    5.76788777469482    4.76460109166939
H         2.48298205302832    5.16172086677513    4.63775456938868
H         3.27403991073215    3.31406923584196    3.18579470835199
H         1.56732645743962    1.77584228005015    2.15279298816974
H        -0.83267646061245    2.48091364884427    2.16007116861185
H        -1.83708542240583    3.96120409535928   -1.16927056226760
H        -2.01231449612805    4.32419095433632   -3.58178123984846
H        -3.58996133892459    6.01005495839180   -4.47347361707217
H        -4.98658270026346    7.31573969388880   -2.91251932430955
H        -4.79193478123978    6.97011429363953   -0.49492439341249
H         1.93091149315291    7.39406153224591    0.29134991201119
H        -0.00376784553666    7.58116282811792   -1.18047299253499
H        -2.20203315919542    8.09021533024704   -0.23671306987177
H        -2.51896328166668    8.14187073371755    2.21329919142994
H        -0.62681994302444    7.78111982387983    3.70628907003325
H         6.19434737352844    6.04920808909194    4.90102191908368
H         8.25696556347975    4.85762950147671    4.28432541581730
H         8.84213188047549    4.54582916742647    1.90558630407374
H         7.35879314214825    5.43215620957475    0.15183951041779
H         5.29275384834712    6.63961837755163    0.77729465797749
H         4.49182205049938    5.82349363897603   -1.18658070348751
H         4.93779419483950    7.53018747859450   -2.89488432631136
H         3.13524434585963    8.28486506712356   -4.39747354768655
H         0.86907039909302    7.33028086922776   -4.17998165908920
H         0.41352646784689    5.61640201096362   -2.45613217776236
H         2.21271648313137    3.55778289908810   -3.28773914412775
H         1.13325645185185    1.77226097816485   -4.57257733532350
H        -0.61886381856773    0.37647101401884   -3.53955697879879
H        -1.29160984421074    0.78456094684154   -1.20012410070204
H        -0.17850725400897    2.57120341592887    0.10190233010509
H         5.76172276183581    1.69150960364242    0.54853593203761
H         8.12722724704033    1.55141433387192    1.20928442363553
H         9.85899866944718    2.67605978882754   -0.13840021766110
H         9.21768328007423    3.97708728823092   -2.13300926286484
H         6.83658249879543    4.13116851763284   -2.78699065984024
H         2.39323312215082    1.06808320779955   -0.53283704449159
H         2.11758446356328   -1.33684490561012   -0.83318996142066
H         3.65680548547168   -2.60174045781070   -2.28859646127417
H         5.48760239839985   -1.42138315991113   -3.45381162851917
H         5.77227354537173    1.00615703102066   -3.15263671368666

