82
CSD_code = JACKII | q = 1 | S = 0 | Stoichiometry = C29H49IrNP2(1+) | MND = 5
Ir        2.81011778992235    9.42792827653258    4.10637210398809
C         1.12603242312314    9.34708956609517    5.27879232680096
C         0.98086228158326    9.76853019820281    6.60057174434681
C        -0.24472764963965    9.71221872417502    7.24626710285801
C        -1.36362234139401    9.23245924684870    6.58995273371083
C        -1.24472317830005    8.80560452943826    5.28044987012874
C        -0.01641439964867    8.86313472613986    4.64116031752073
P         2.86251764476875   11.73052799713710    3.72611412023516
C         4.09944072653272   12.72971333932745    4.75011608183629
C         3.71569369305490   12.58837823609563    6.22330399818739
C         5.46748061204911   12.07150541992942    4.54641331328591
C         4.19649327785012   14.20694990727190    4.37933183158139
C         1.27164846005907   12.69142821732638    3.36934548637087
C         0.64371335659169   13.10394282970908    4.69989791807954
C         1.43850008161606   13.90541061095718    2.45536888937867
C         0.33139152624773   11.69026478377358    2.68882147409289
P         3.21607901941798    7.15089224780478    3.89066515589088
C         2.40550536065107    6.45917045672632    2.32046635413872
C         2.11213050851963    7.68138044364676    1.43879592496967
C         1.08139326670402    5.77923641564204    2.67109250159930
C         3.28924900962408    5.48973157021191    1.53677968357075
C         3.25694615236433    5.90898370285833    5.31443772246173
C         3.68938468864259    4.50401462751551    4.90481306172666
C         1.87020227562021    5.88860323315862    5.95972379437078
C         4.24172533448585    6.46601472373815    6.34727199292946
N         4.43253111360922    9.48638492865291    2.62793922284526
C         3.64905574348708   11.70508994075566    2.03985971359555
C         4.60396035860572   10.56579218936422    1.86553566860899
C         5.59973828491804   10.61565233219123    0.89671853911169
C         6.41266350746500    9.51105941018775    0.71003775913807
C         6.21668184556662    8.39254548334806    1.50363390083059
C         5.21996837373031    8.41821599526400    2.46986809000139
C         5.00652542503986    7.27473223330689    3.40623606115819
H         3.59669291187985    9.49978489321712    5.39506318278413
H         1.83216593956644   10.14597558391275    7.14644555565031
H        -0.32123310820243   10.04747787319767    8.26949739963606
H        -2.31730035604508    9.18804309855452    7.09211122108780
H        -2.10574185966653    8.42541577569150    4.75026449881149
H         0.02802141131627    8.51652850828365    3.61474014028603
H         3.67363126977328   11.53651118038903    6.49833725657938
H         2.75178990678079   13.03871587644296    6.43586542304776
H         4.46193010100284   13.07919673581746    6.84463427000478
H         6.18269998996990   12.50460971089153    5.24270501727393
H         5.85073406955339   12.22818298779799    3.54043741013685
H         5.41403688674811   11.00176686697980    4.74475463583440
H         3.29879630884603   14.74909305743065    4.66262621946470
H         4.38570592671593   14.35274554142338    3.31761324289234
H         5.02915068748097   14.65137625252718    4.92252838014575
H        -0.38455247565439   13.42194607603714    4.53760530662504
H         1.17792134735667   13.93550655045405    5.15116656707246
H         0.63298065223263   12.26335357852701    5.39340522342300
H         1.79490163463206   13.62708793752477    1.46629980755802
H         2.10788293553322   14.64995437225738    2.87018505087948
H         0.46455968065135   14.37619155057553    2.32885350745242
H         0.06880748250834   10.88952894698662    3.37658168666240
H         0.76428993366146   11.26368368054548    1.78311804233709
H        -0.58952594414761   12.19284091321174    2.39856714324582
H         1.46296154769453    7.39790756374751    0.61082372105125
H         3.02526475517958    8.09074639912708    1.00871935599362
H         1.59972177189202    8.46651447249629    2.00186238656865
H         0.47879286704348    6.40015203688387    3.33048959731667
H         1.24657614765440    4.81844850997195    3.15062960210092
H         0.51042959377309    5.59552478992330    1.76138554995143
H         2.71409232014648    5.08270853403874    0.70597141783357
H         3.62094038773870    4.65569956854183    2.14847619279089
H         4.16013042703128    5.98860704831352    1.11559647937278
H         3.78188006250974    3.88979044647580    5.79889651895376
H         4.65798927309622    4.51051622048321    4.40874168349900
H         2.95985041521271    4.02664915061860    4.25652857167020
H         1.90495156874724    5.30735783276923    6.87874360850136
H         1.12183778967869    5.43815385236478    5.31677144970063
H         1.55717375184378    6.90156861084848    6.20763918781966
H         4.07336126136741    7.53291193006725    6.50037126769500
H         5.27620356309318    6.29603745861576    6.05906238094122
H         4.08430326789234    5.96473233308386    7.29947358375958
H         2.83799386788731   11.57088634941857    1.31513215808181
H         4.13565489788254   12.65515596198927    1.80810703428367
H         5.72394930387556   11.50176189402336    0.29490241089618
H         7.18578051060383    9.52100604778629   -0.04181439902552
H         6.83423597827681    7.51661099537168    1.38608904218647
H         5.53755979560015    7.51138550095396    4.33317747642213
H         5.41337496899135    6.34636240007803    3.00456307343428

