46
CSD_code = JACKON | q = 0 | S = 0 | Stoichiometry = C14H26Cl2N3V | MND = 5
V         1.58564635567356    2.59521240770889    0.20874826473970
Cl       -0.52234239321288    2.45722998003055    0.49893942837748
Cl        3.32056473817101    1.81829611214064    1.17736078121803
N         1.95726374577670    3.50794749976310   -1.04442620632307
N         1.64654476935787    4.33003993233448    1.52150225756369
N         1.51799051383456    0.83137744891257   -1.06454144235915
C         2.95791128571686    4.99318618035685    1.44453273942798
C         3.09679788520666    6.08335997119532    2.52168423634549
C         1.70831049986985    6.36035827945026    3.09227868186125
C         0.76536312127450    6.62096986587085    1.91974176986324
C         0.62051366066881    5.30943637324500    1.12874509812007
C         1.40040342738139    3.90103781977938    2.90061498536186
C         1.22971177605433    5.11318081961024    3.83546713570383
C         2.83854940794598    0.57908382420859   -1.66321725862776
C         2.77664616853881   -0.55176088053058   -2.70447833629635
C         1.43749348664147   -1.26710809646378   -2.54194268916312
C         0.33462760446472   -0.29013525527712   -2.94111974820106
C         0.55259855218678    1.01741774029216   -2.15929483961228
C         1.12266280186598   -0.32829507091889   -0.26133366394088
C         1.25448035339476   -1.63316570859266   -1.06911793041648
H         3.04596764888232    5.40243279430667    0.43343588806760
H         3.74058336441954    4.24114627325010    1.56407331434197
H         3.51744566797620    6.99183058412810    2.08965199623323
H         3.76439692167289    5.75561266917972    3.32083443050335
H         1.73231687652068    7.22011455231597    3.76760482980161
H         1.17543691046886    7.41230758035685    1.29095547430092
H        -0.20918865519902    6.95326789700324    2.28016666036739
H        -0.36003927437559    4.86369602899634    1.31216654521141
H         0.71898366634490    5.47286588797965    0.05035524050073
H         2.24945247351866    3.28694066245909    3.21792017557166
H         0.49929395992395    3.27826695246848    2.91774572595962
H         0.18343817417014    5.23852305476220    4.12082842180494
H         1.80840198476913    4.97130159953671    4.74957728920411
H         3.52931349400401    0.31462413557041   -0.85910150479246
H         3.18256588538280    1.51994851585993   -2.10564361949554
H         3.60221644893091   -1.24873694882941   -2.55345588707037
H         2.85746074748540   -0.15429664598088   -3.71702970596927
H         1.40154106401795   -2.16553725468667   -3.16434106958175
H        -0.64092078500153   -0.72189922964904   -2.70958226641745
H         0.36715305404869   -0.10033434888281   -4.01437276186530
H         0.94731244865215    1.81484546003156   -2.79641872586261
H        -0.39213481499386    1.36917110917278   -1.73945798627387
H         0.08685087309917   -0.17723036268758    0.05966097103816
H         1.75733365974884   -0.36839492714873    0.63065153034999
H         2.11361168366369   -2.21455975329494   -0.72892507196972
H         0.36396876106036   -2.25047552933418   -0.94034315759611

