60
CSD_code = JACNUW | q = 0 | S = 0 | Stoichiometry = C26H31P2Re | MND = 9
Re       -1.34439165196119    2.90523899872040    4.19143792705677
P        -2.28465886496904    4.80846218614997    2.92876594949988
C        -1.36667794087723    6.32871911373976    3.43168736741133
C        -4.89011992148142    4.86539737442562    4.01187212715777
C        -6.17496788832076    5.37109386820609    4.11730745896921
C        -6.57734678691391    6.41891677642077    3.30877226385807
C        -5.69503930291367    6.95960459747889    2.38518415375612
C        -4.41310229367622    6.45960225639061    2.27645185982997
C        -3.99989015302198    5.41163335114482    3.09816083740414
C        -1.20040638147140    5.47438860001349    0.38258163760828
C        -1.17603230772283    5.34250302463042   -0.99547355931475
C        -2.08390799977458    4.51788035109593   -1.63668768203725
C        -3.02136416572202    3.81055802356300   -0.89939540451674
C        -3.05212643267820    3.93818554247305    0.47429275944816
C        -2.15055339058349    4.78172718452853    1.12066223552087
H        -1.34483402801410    1.19519232864440    4.19217389307780
H        -0.21303880586133    3.64092399173922    3.21010867281471
H        -1.30545010187928    2.27843510430823    2.63489348711255
H        -2.87337753519008    2.30007255591409    3.86484179435401
H        -1.85950632808734    7.22144422907577    3.03128949428201
H        -0.34434147650294    6.26425057552891    3.03635470668507
H        -4.58676048999774    4.03746651517968    4.63830636743639
H        -6.86166049108469    4.94036287687417    4.83126016492974
H        -7.57996532348515    6.81219566570539    3.39027000845145
H        -6.01031243248737    7.77140219049982    1.74553647859995
H        -3.73056088951027    6.87205610529590    1.54384352040452
H        -0.47904299908580    6.11699404521170    0.86754408348974
H        -0.43997965660424    5.88676552863381   -1.56969569410627
H        -2.05688744282394    4.42055339762395   -2.71196530935419
H        -3.72308143512768    3.15769778806556   -1.39705349693843
H        -3.76953904138677    3.38311309825816    1.06741359640032
P        -0.40482742394565    4.80829305069487    5.45484104472144
H        -2.47649461816596    3.63997738499450    5.17280422455870
H        -1.38332830147968    2.27886739289639    5.74833824691154
H         0.18418950231970    2.30023563680172    4.52072040661822
C        -1.32254498898478    6.32867875911599    4.95175752351491
C         1.31040327095623    5.41131701300474    5.28532695900537
C        -0.53883195330284    4.78171332873434    7.26288855853141
H        -0.82960013949094    7.22137341576002    5.35206662572389
H        -2.34490197864095    6.26445033199496    5.34706713379184
C         2.20079168948767    4.86494684143880    4.37184742699047
C         1.72346913875173    6.45938109857279    6.10698414654453
C        -1.48905974807178    5.47430770861880    8.00089819074678
C         0.36268553645721    3.93810687886226    7.90920764780279
C         3.48565569863561    5.37063951018936    4.26659440663145
H         1.89755529234985    4.03693424673282    3.74546284571609
C         3.00541213822516    6.95938380778872    5.99843049540895
H         1.04077421107460    6.87182954285168    6.83944894758252
C        -1.51352358285830    5.34235950148142    9.37893002883294
H        -2.21043423749678    6.11682709738681    7.51583202097761
C         0.33186516523344    3.81044806149437    9.28287651665661
H         1.08006815106537    3.38300691403861    7.31607359702408
C         3.88786545473758    6.41858564226813    5.07505111557290
H         4.17248294064722    4.93983289734479    3.55281453879336
H         3.32054659534529    7.77126639421327    6.63803324494264
C        -0.60562228012102    4.51776110044190   10.02013956652848
H        -2.24959387514063    5.88662102608273    9.95312112529292
H         1.03357624303610    3.15758529607927    9.78053712180595
H         4.89048175546941    6.81188440804599    4.99364896634974
H        -0.63263569687109    4.42044846653378   11.09541562712889

