121
CSD_code = JACPEI | q = 0 | S = 0 | Stoichiometry = C36H78O3P3Y | MND = 6
Y         2.90900004506402    2.90911383122542    2.90900715940426
P         5.20160037583769    4.32408372238911    1.95042026906328
O         4.37752579226716    1.90444337668278    1.87927441059224
C         5.15677973534197    1.86567235141067    0.72122878265880
C         5.99091274133726    3.18344352147635    0.72064850383347
C         5.87584464629685    5.91190928892503    1.24538242788719
C         6.42110734621970    4.18992268024640    3.33523276972223
C         4.19900599316058    1.84257808189447   -0.54932845821910
C         6.19247462586385    0.65315081494080    0.84020337976875
C         3.54646418276152    3.22459740342970   -0.71156017690792
C         4.89060726666389    1.52913423065305   -1.87879439950357
C         3.03109982305544    0.86211296118726   -0.34957472952922
C         7.36816009152229    0.69530198725688   -0.14952613447806
C         5.52853845503221   -0.71900829737983    0.69425053062680
C         6.79486617141037    0.69234382807556    2.25589672903338
H         6.07280527163357    3.65710230495240   -0.25707921510931
H         7.00292446994704    3.00998115097741    1.08368021515055
H         5.73722995749237    6.73076939368053    1.94804987904972
H         6.93880758070894    5.81155188344681    1.02877914472021
H         5.34693526040878    6.15571530341015    0.32642929619006
H         6.20056622789157    4.95422867056361    4.08070760335769
H         6.32246284694866    3.20684452282496    3.79022819480459
H         7.43972800384437    4.33154565072474    2.97126254839557
H         2.76082293765313    3.15796904586443   -1.46345148424440
H         3.10206866257580    3.54891782384897    0.23096321627003
H         4.24658770725967    3.98262043000083   -1.05236026308301
H         4.20371414981723    1.75207324555421   -2.69480808128148
H         5.78079719268499    2.13705045484155   -2.01599823164524
H         5.16165870183532    0.48194600181872   -1.96310810148276
H         2.25524460361228    1.05842322523934   -1.08844154231136
H         3.33296419734607   -0.17267680134743   -0.45646049744993
H         2.60046224549194    0.99937772686403    0.64825524302001
H         8.13991941004073    0.01410584713130    0.20771821905923
H         7.08236256321407    0.36484740597041   -1.14125525530320
H         7.81538991488732    1.68044098935516   -0.23808521737433
H         6.22882156365782   -1.49494118584180    1.00236107521843
H         4.65190513825150   -0.77937872439633    1.32604438377719
H         5.25239307571502   -0.92729894951792   -0.33479040341250
H         7.31291264396496   -0.24116104039756    2.46722190274833
H         7.51314693659975    1.49980432291808    2.37037885021168
H         5.99829169753890    0.82596707676940    2.98258975014165
P         1.95045281123711    5.20151900927945    4.32402567100372
P         4.32403772798572    1.95033190733580    5.20190041439700
O         1.87925970216643    4.37759534036372    1.90432575345424
O         1.90444921928818    1.87929807939439    4.37755517219921
C         0.72068352188585    5.99086694691478    3.18338006701900
C         1.24546405614594    5.87585471481442    5.91185585166042
C         3.33520156453545    6.42111067660885    4.18990904762998
C         3.18326550533193    0.72049614425562    5.99091281751779
C         5.91201540261922    1.24533049859708    5.87582354113905
C         4.18987827177088    3.33535983486306    6.42114211920745
C         0.72119738059528    5.15680257713119    1.86557515086045
C         1.86555082094285    0.72119780621566    5.15672351886592
H        -0.25703386317284    6.07278607976840    3.65703255711946
H         1.08364728058595    7.00288581160568    3.00986101903590
H         1.94805716756089    5.73728194171708    6.73076393922562
H         1.02881523096279    6.93880448803115    5.81155679449708
H         0.32653437372952    5.34697532848632    6.15572133305678
H         4.08070340125222    6.20059160212107    4.95418121621809
H         3.79020759778359    6.32245772451237    3.20684709522334
H         2.97123712226054    7.43974291457013    4.33152935919621
H         3.65690111931691   -0.25723186938178    6.07279075307671
H         3.00973766132006    1.08343556108510    7.00293092437810
H         6.73088394396142    1.94796858905224    5.73721295026937
H         5.81170054159812    1.02872254194156    6.93877031258795
H         6.15583150998876    0.32638808186788    5.34693077706712
H         4.95418938387822    4.08082400479598    6.20059800565057
H         3.20680462246926    3.79033551790555    6.32245371671203
H         4.33148396325764    2.97137690481778    7.43975415986451
C        -0.54934738995622    4.19901123768502    1.84259742878757
C         0.84018499022097    6.19248296084344    0.65306216928711
C         1.84256012285245   -0.54935724376724    4.19895212932933
C         0.65309339539085    0.84019781017123    6.19247423632065
C        -0.71156589553912    3.54648403683686    3.22462794639545
C        -1.87881817616938    4.89060528871342    1.52918133564737
C        -0.34963370807463    3.03109793242927    0.86213645837238
C        -0.14953934016939    7.36815864362030    0.69526122500215
C         0.69418044573010    5.52847215792159   -0.71905360154799
C         2.25590335861543    6.79481092319617    0.69231897702044
C         3.22458718257054   -0.71159352251582    3.54642256809348
C         1.52913082851774   -1.87882106815484    4.89055801743230
C         0.86207937263944   -0.34957659080021    3.03106774678170
C         0.69531253131488   -0.14953902876105    7.36813936950931
C        -0.71904374068539    0.69422092397570    5.52850187875872
C         0.69235855124222    2.25588749223770    6.79487237391235
H        -1.46346793962304    2.76085147574266    3.15800935342559
H         0.23096429493337    3.10207925062522    3.54892396486409
H        -1.05235712960230    4.24659831390963    3.98266667971970
H        -2.69482217553851    4.20371587103831    1.75215665572548
H        -2.01600940364976    5.78079941550090    2.13709279663400
H        -1.96314745121744    5.16163350653944    0.48198521411657
H        -1.08847466589694    2.25522724373141    1.05849609931084
H        -0.45656619254637    3.33295419738870   -0.17264998796242
H         0.64821080993679    2.60049009372558    0.99935784149332
H         0.20767267253802    8.13986379428344    0.01399223880980
H        -1.14130415148358    7.08235218471320    0.36491197315090
H        -0.23797675899502    7.81543581441844    1.68039032671997
H         1.00231840951894    6.22871309588350   -1.49501615613708
H         1.32594104753853    4.65181479772673   -0.77937712534264
H        -0.33486515757423    5.25233478234076   -0.92732423682111
H         2.46725283376821    7.31286137634151   -0.24117975943344
H         2.37040567444348    7.51308041552439    1.49978554910908
H         2.98255866296251    5.99820216452331    0.82594681430808
H         3.15795125125395   -1.46347289512954    2.76076825707051
H         3.54888992671013    0.23094539988502    3.10203512880332
H         3.98262191425394   -1.05240911655748    4.24653390960290
H         1.75207664549155   -2.69482514071581    4.20365808189326
H         2.13704774212531   -2.01602979828899    5.78074865631590
H         0.48193562849179   -1.96312410620360    5.16159784913060
H         1.05839419556879   -1.08843450198484    2.25520500964213
H        -0.17270712945222   -0.45646826384380    3.33294258884460
H         0.99933489897720    0.64825981166793    2.60044597378304
H         0.01408652625948    0.20768925336195    8.13987858059247
H         0.36489781629040   -1.14128347836582    7.08233112039612
H         1.68047010723769   -0.23801916304151    7.81536096171049
H        -1.49497715853763    1.00235623658235    6.22877322095856
H        -0.77938655994463    1.32600143176449    4.65186096951424
H        -0.92734808219453   -0.33481549057288    5.25235601731505
H        -0.24113652857235    2.46721265188596    7.31294140533279
H         1.49984156293119    2.37036069627621    7.51313230048344
H         0.82596404093757    2.98257240937731    5.99828513631741

