107
CSD_code = JACPIN | q = 1 | S = 0 | Stoichiometry = C54H48N2P2Rh(1+) | MND = 4
Rh        2.97539588006702    8.02150606503225    5.79972472644929
P         2.99330843435830    5.74815216127602    5.85784901037932
P         2.96450047957083   10.29556050410893    5.73051690060901
N         4.42528570767869    7.97012587706635    8.49517905434824
N         1.51439887157495    8.08619929977562    3.11090626959887
C         4.07109302572441    4.93137224568341    4.64651946482037
C         4.37255264552117    3.57397880865545    4.71872363926824
H         3.97906922472393    2.97645339601106    5.53013679798413
C         5.19122550998036    3.00119562915905    3.76275391087138
H         5.42247179185989    1.94798370439293    3.81562693173470
C         5.72010381214748    3.77606735561769    2.74181463988440
H         6.35926155291999    3.32320846553205    1.99942916576116
C         5.44149353145265    5.13199761491717    2.68040499573282
H         5.86974067873893    5.73666500431667    1.89456232343250
C         4.62058873333366    5.70872221677291    3.63219657466849
H         4.40272649272330    6.77405673013510    3.60750183969516
C         3.47546473461840    4.91575102510346    7.40389241669274
C         2.55626661823138    4.35853780901182    8.28416480758171
H         1.50719899990142    4.32788990088382    8.02312466247503
C         2.98854527100068    3.83844350631412    9.49307200760668
H         2.27282524086315    3.40052156298005   10.17245870903419
C         4.32968839141163    3.88393753950662    9.83351850510629
H         4.66068979111825    3.48535074466813   10.77995948726977
C         5.25034398278051    4.44043784667016    8.95835130387621
H         6.29632850577961    4.47516674800156    9.22364094785109
C         4.82500793607670    4.95581403586430    7.75027571863400
H         5.53381066988910    5.39232882254869    7.05674649272524
C         1.31455672885794    5.11827374695417    5.54483135951845
C         1.01564037664110    3.93919656390957    4.87550794456279
H         1.80867374241523    3.31870577990288    4.48453328061564
C        -0.30697868007478    3.56850345158014    4.69829212814123
H        -0.53996130650931    2.65357927465235    4.17482135196877
C        -1.32954815071998    4.36444475456329    5.18804062299392
H        -2.35767672264723    4.06739945197902    5.04780141880517
C        -1.03544112856803    5.54727218583302    5.85026691532495
H        -1.83322004300473    6.17141035863991    6.22475744169706
C         0.28219070008186    5.92532719645841    6.02106152288870
H         0.53338340368692    6.86101097937429    6.52367575076710
C         2.47386443338446   11.11186658790105    4.17854935721416
C         3.39377626076145   11.60892540896181    3.26357622547819
H         4.44859231094862   11.60766811950459    3.50263397420192
C         2.95537770188696   12.11077152916979    2.04923477062285
H         3.67208014573933   12.50179818913103    1.34277911915749
C         1.60642562247315   12.10671815510026    1.73776310368626
H         1.27013995863414   12.49074091205151    0.78716124417201
C         0.68500782806563   11.61026475978188    2.64741500939870
H        -0.36705395732515   11.60795269506081    2.40507976284692
C         1.11682289394986   11.11248054430761    3.86064748674554
H         0.40702564496709   10.72219188398829    4.58004320015585
C         1.90108244501077   11.13030844760196    6.94221198325212
C         1.60651425402359   12.48867723274013    6.85926974527559
H         1.99754525990692   13.07652898655306    6.03964281149298
C         0.79651987938765   13.07472027971037    7.81457789573716
H         0.57028293072024   14.12854708158101    7.75293648055064
C         0.26952418382163   12.31225428030212    8.84579452763555
H        -0.36317445568493   12.77531990830970    9.58742931501199
C         0.54141498312620   10.95553622577122    8.91826479853032
H         0.11438451015156   10.36063558872072    9.71217454324121
C         1.35348644782908   10.36547859434059    7.96703169962832
H         1.56509352738152    9.29925560068421    7.99983493079323
C         4.64953392464273   10.91974592252908    6.02190415707546
C         4.95976789083443   12.11014621756669    6.66565088393387
H         4.17309799214486   12.74329137198232    7.04895487898502
C         6.28562515293275   12.47596299171881    6.82790593734025
H         6.52727353626888   13.39967273044222    7.33165003701121
C         7.30049029057814   11.66393886849638    6.34859537545463
H         8.33119742734191   11.95700538369769    6.47754035536165
C         6.99521442863206   10.47015510506559    5.71171907568672
H         7.78690372210174    9.83340068419841    5.34576103663040
C         5.67427171200028   10.09718630024944    5.55582257907494
H         5.41453612197680    9.15302402167433    5.07341635832952
C         3.88753360597398    8.05659328171897    7.46168261612517
C         5.01316913357206    7.70752619857463    9.68705641341237
C         4.20379748889992    7.34230188988829   10.77021746060628
C         4.82942666862054    7.02602206540004   11.96466182999623
H         4.22882849393197    6.73827013458100   12.81398074008534
C         6.20840616072156    7.07684085668348   12.07863254610847
H         6.67807892169662    6.82551809802018   13.01685836037597
C         6.98877277875561    7.45256255733638   10.99825951154648
H         8.06267282505292    7.49530844386894   11.09823065982159
C         6.40815396014708    7.77623092640399    9.78299222216292
C         2.71518492639835    7.31535991275570   10.62135016298122
H         2.42552469956774    6.73526918846543    9.74490287939485
H         2.33293524704007    8.32918329581405   10.49581343215297
H         2.25131255198405    6.87779486389968   11.50037787950841
C         7.22017140577753    8.18651755951454    8.59508010919197
H         8.28113362090517    8.14833399363781    8.82403002150250
H         6.96441294638862    9.20211125011100    8.29049595782779
H         7.01947944271333    7.53090293958142    7.74755674538191
C         2.05922194059470    7.98978420338551    4.13970835987506
C         0.91214395714143    8.35404392070973    1.92747325195145
C        -0.48633347147983    8.34331943604205    1.86256546197802
C        -1.07912352169273    8.67371673474235    0.65502503287912
H        -2.15581078422779    8.67535831483397    0.57879496718489
C        -0.30762658336421    9.00032306131389   -0.44738706467016
H        -0.78683639037523    9.25815936710643   -1.37900341843872
C         1.07440560530760    8.99383496127700   -0.36373847784391
H         1.66767244878647    9.24354461437345   -1.23004235951001
C         1.71212627418298    8.66841116184890    0.82181208233175
C        -1.28924362566239    7.98243147471664    3.07239055326692
H        -1.01820147590768    8.61506089747058    3.91767170539347
H        -1.09552129809728    6.94921568960101    3.36292006235096
H        -2.35102085951307    8.09457189863202    2.87533520511876
C         3.20338389198652    8.63545416293267    0.93975532375184
H         3.66661346321257    9.02544882078415    0.03822197469689
H         3.54530210868771    7.61062925425503    1.09046186454660
H         3.53510299954469    9.22982559685821    1.79154222584976

