45
CSD_code = JACRUB | q = 0 | S = 0 | Stoichiometry = C21H16MoN4O3 | MND = 9
Mo        1.57591310994862    2.43870309165656    2.65573727894106
C         0.99964929225632    3.16894301044379    0.54826950908057
C         0.19415114531457    2.03701739307800    0.83882901819443
C         1.04032647058004    0.91432430529600    0.95391537714511
C         2.36637286937582    1.34575846951226    0.72931092015105
C         2.34421215325302    2.74070450472148    0.48612978495114
C         3.48016453496091    1.65398996765874    3.65550589129690
C         3.59500773297365    0.11814847985177    3.67033460835427
C         5.08464895269348   -0.21795767305632    3.35479133425871
C         5.83137238164534    1.14510161020129    3.49894116947827
C         4.75566642397401    2.15228506025636    2.96514932441367
C         5.10957533821117    3.56371117885557    3.29908230858865
C         5.61788616935166    4.48261207316231    2.48188868146677
C         5.94681154798011    4.28420148579708    1.03416749441082
C         5.93003911883226    5.85667162859730    2.98992134674963
C         5.62487408562204   -1.23941933569210    4.22634868759555
C         5.19218466533385   -0.66702348015012    1.98042271168398
C         7.05002133745236    1.19881884632573    2.72409247113348
C         6.14620473510459    1.40383751170033    4.89016241262608
C         1.01866506523821    1.39022580899470    4.19201147065397
C         0.19551400513391    3.37082579882162    3.65073606116602
C         2.27305868666872    4.04848450592194    3.50018959977314
O         0.63017721775145    0.78207955821646    5.08189262513094
O        -0.60083522676014    3.91837450261932    4.26991787225166
O         2.54009178735725    5.06850148312904    3.94756168163474
N         6.04376726771929   -2.04586168553423    4.91685560894985
N         5.21290104132280   -0.97968879236670    0.88205072654080
N         7.99305543486295    1.25648398615357    2.08272782915088
N         6.38438118142829    1.60462305780233    5.98803316706551
H         0.63034898680948    4.14271001809752    0.24905868983904
H        -0.88851499867834    2.01305340411786    0.81737100394674
H         0.71485232761279   -0.11752418104679    1.01450559432525
H         3.21093806145362    0.68739094190115    0.55523113262374
H         3.17329374595943    3.32906881542583    0.11266339525111
H         3.57155353434561    1.97926210739966    4.70256801835972
H         3.32852385419633   -0.28373524170133    4.65089161638935
H         2.95683500684196   -0.37333941116251    2.93029790348969
H         4.71588181849157    2.00493368122819    1.88210904217758
H         4.97034327025564    3.81867331118631    4.34311096834865
H         7.00230847562269    4.50114992353401    0.87505959709910
H         5.37545304267915    4.98361755444079    0.42362446341000
H         5.76239536568023    3.27358033094680    0.68206326059441
H         5.61301106343150    5.97830267749234    4.02144763093442
H         5.42864947196799    6.60589952692656    2.37891017475442
H         7.00176844771356    6.04228018928271    2.92821053561585

