59
CSD_code = JACTOX | q = 0 | S = 0 | Stoichiometry = C24H28Cl2NOPPdS | MND = 4
Pd        0.46450061982116    2.63087274330126    5.47107735649744
Cl        2.41222485074733    1.53908985314880    5.84424225166333
Cl       -0.30248672450790    2.04974155592605    7.50451613106529
S         1.47177579047453    3.05284205944137    3.39340148016496
P        -1.53306124368855    3.60802403671697    5.13854358435579
O        -1.53682907546390    4.97791286393691    4.26153555954035
N        -1.29129458482887    2.46225602769502    0.32700537336212
C         0.76889008384742    3.62984592561053    0.83282440668902
C        -0.00504483239869    2.89582985973904   -0.07733952496054
C         0.53506679613463    2.58758734589254   -1.32338624276442
C         1.80254847044082    3.01273375300705   -1.67448034130332
C         2.55702635739992    3.75494710645282   -0.78298783734761
C         2.04007976008886    4.05013294843761    0.46460735672518
C         0.27865301488719    3.88054410780965    2.22879723812315
C         0.16718815689520    5.36725905019757    2.55582012309157
C        -0.30478492371855    5.63033066249291    3.98508657121435
C         1.32565094414794    1.37342863973369    2.72677973151115
C        -2.31343364953889    3.48837209099731    0.23449817439572
C        -1.74573407841959    1.20864243920904   -0.23650442800280
C        -2.50466112988045    2.43468033094959    4.13645731825096
C        -2.06444471264725    1.11505097742784    4.08847062769543
C        -2.79385769293240    0.17001524946563    3.38855234607645
C        -3.96237614599205    0.54181017640425    2.74208292996687
C        -4.40427674286859    1.85513136250265    2.79468337621551
C        -3.67814298810221    2.80401206537024    3.49259619373253
C        -2.73789700790342    4.01174308294789    6.43367713821739
C        -3.39819191143633    2.97040830989773    7.07779014150687
C        -4.28136896283479    3.24729914783360    8.10344342098058
C        -4.50635418685070    4.55871018801469    8.49246642250645
C        -3.84323864821329    5.59513095968467    7.85727223855714
C        -2.95316016926893    5.32412644972372    6.83323697164941
H        -0.04426010563344    2.01419984904075   -2.03036754177111
H         2.19944822377103    2.76485424208739   -2.64753485231090
H         3.54742417902535    4.08855112058561   -1.05108207555446
H         2.64298480643127    4.58836048601595    1.18096529982584
H        -0.68545607204103    3.38541352341091    2.37707661068439
H        -0.54064593241403    5.81957558539064    1.85656917889545
H         1.13353034902596    5.85485680468377    2.42286401165316
H         0.47053685436605    5.30091274728012    4.70189978958848
H        -0.47354804967916    6.70251869116404    4.12505547808837
H         0.27700329129929    1.13771610411698    2.55377615141312
H         1.88406909215416    1.32141136316998    1.79538416907282
H         1.76568343106549    0.70962239985458    3.47077675186453
H        -3.18650261558281    3.16659882972012    0.80154201018614
H        -2.61737755295823    3.67167343744182   -0.80665101218299
H        -1.94544559881933    4.42178124450903    0.65216546959529
H        -2.56685483936388    0.84300472579106    0.38196934702967
H        -2.10978575737904    1.29788810354734   -1.26938840058063
H        -0.93487047751696    0.48333647812124   -0.20527773884073
H        -1.15329945918764    0.83098865045662    4.63284600840250
H        -2.45804160690909   -0.85557068999234    3.35118465721030
H        -4.53635429740348   -0.19703394203422    2.20192911313829
H        -5.32151501632129    2.13495369159542    2.29680755163418
H        -4.00902479298661    3.83109424428509    3.54725477690862
H        -3.20251395286851    1.95015290389917    6.78063026698715
H        -4.79097517345600    2.43916389894417    8.60637071135972
H        -5.19484088825209    4.77232200032609    9.29668492163523
H        -4.01323278898276    6.61631958295043    8.16595371559800
H        -2.42680068277347    6.12922255367416    6.34072954109113

