68
CSD_code = JACYOE | q = 0 | S = 0 | Stoichiometry = C30H25CoN4O8 | MND = 6
Co        2.37930966836733    6.19292208731897    8.46745746432210
N         3.32482879135918    5.18787558021109    7.18521073705009
N         3.29629205206008    5.82633720913196    5.98839953213125
H         3.69706313846677    5.37853332274789    5.16972933379172
N         1.52510792917418    7.26790399945180    9.67300249294213
N         2.33904844315434    8.15651683539046   10.26962240456984
O         2.11592713823449    7.40821127314167    7.02939275263324
O         2.66442765042392    4.99151386439913    9.80793420545098
O         2.26379598716807   10.14664474168004    1.33633535425369
H         1.69641116938433   10.91453950776705    1.48053607877622
O         2.74793503769187    3.66063861470353   11.99636259476479
O         3.91273578405085    7.16038276958711    8.97279514642875
O         0.86773137874999    5.26992948216592    7.93945403998242
O         7.52632965627559   11.45784140051547   11.89378930000849
H         7.15528595911005   12.07340462141832   12.53771394981517
O        -0.90576343614504    3.64969928908985    6.98135373583761
C         2.63847399664993    7.00734498641274    5.96569207764676
C         2.56484122630640    7.78934018550878    4.73330269912307
C         3.24002034670148    7.45610173785597    3.55466012530080
H         3.86994604408501    6.58151061450815    3.49973353375875
C         3.12896440891748    8.25018192179357    2.43509121333433
H         3.64793217360151    8.00354272766627    1.52276608104554
C         2.34017956923225    9.40058806714820    2.46045389170244
C         1.66623106076375    9.74148965043121    3.63125468797765
H         1.05501243659250   10.63337991317802    3.65872654769039
C         1.77963032073465    8.94640888339103    4.74961410056718
H         1.26395182756036    9.20081746640560    5.66216574984454
C         3.87572681593218    4.02724059296818    7.32273288471487
H         4.34611538942596    3.55420765580569    6.45789746763091
C         3.90122413483465    3.33327587733038    8.55404566026701
C         3.57514525162040    8.03462758077058    9.85556708183911
C         4.59570826675352    8.93421961382146   10.40628730315636
C         5.91988773653929    8.82806642431924    9.98320511038288
H         6.17194673047180    8.07095253442863    9.25673332499281
C         6.88826843281595    9.67117919791640   10.48367754182033
H         7.91623149042249    9.59982536367979   10.16484759426631
C         6.54583058125256   10.64052370462904   11.42288707428287
C         5.22576088219529   10.74960753522639   11.85144218943098
H         4.96293038022219   11.50307727047370   12.58330524284279
C         4.25911914226745    9.90385437743881   11.34768680988605
H         3.23385028016308    9.97751550675860   11.67105398272240
C         0.27805415933289    7.21680321358995   10.01244612285783
H        -0.05777028851145    7.91608635079020   10.77394588120498
C        -0.67469708855477    6.31378956050504    9.46348771606708
C         3.28349935311291    3.87223414186940    9.72218256431696
C         3.36016170512817    3.08201809805891   10.92738126276285
C         3.99945976082745    1.86982684816448   10.93858273834716
H         4.05270702172135    1.28253075030519   11.84186690464000
C         4.59818946808273    1.36409680851193    9.77329447769456
H         5.09431991897707    0.40658892586524    9.81221109534875
C         4.54879662053973    2.07678851876750    8.61391693236243
H         5.00699461405514    1.69155105660665    7.71446760724456
C         2.75520681150511    2.97501439170628   13.22088330961784
H         2.24527482190384    2.00807028959260   13.14571395895935
H         2.21471443372972    3.61295594579429   13.91837341283759
H         3.77479632443694    2.81785862221657   13.59029689301917
C        -0.31290877841885    5.38292231002112    8.45588898879683
C        -1.33415086245072    4.51027849965465    7.95959316741450
C        -2.61513571747045    4.57191402482621    8.45177352567840
H        -3.38196786395985    3.90999321390388    8.08027020371807
C        -2.94956442842992    5.49614669154273    9.44840523524485
H        -3.96255344447739    5.52476640722055    9.82000333416879
C        -2.00051601196955    6.34735610016174    9.93999531774421
H        -2.25305663420500    7.06185588843920   10.70960097707319
C        -1.82297512714477    2.71514415168891    6.47975522476524
H        -1.27290346866188    2.12067147239402    5.75112157919163
H        -2.66863103093675    3.20302604974235    5.98103131376822
H        -2.20253954175021    2.05623767947986    7.26869115618056

