54
CSD_code = JADFAY | q = 0 | S = 0 | Stoichiometry = C25H19BrN3O5V | MND = 6
V        11.45546851818581    3.49907693459137    5.65194065085379
Br       13.39438201498124    1.43571090608863   -2.58266348542166
N         9.91728507266061    3.78237132070923    4.39849822228023
N        10.15261881703699    3.46517177382108    3.12550281473538
N        10.66562920924498    1.13970107562692    5.65153494835355
O        10.28553818957753    3.59637771487434    6.85966010054852
O        12.08087491281602    2.71788372741077    4.01430096963029
O         9.74003043964724    4.21090971944098    9.36749531180496
O        12.71111215669237    2.63933327990780    6.44424112489010
O        11.93781547409173    4.92715493419135    5.41142958049984
C         8.46428541828049    4.80219462097238    6.01448939222125
C         9.25557308230962    4.34761262032511    7.09357327697705
C         8.90020221785126    4.70201665971865    8.42238372032384
C         7.78474718051294    5.48778183568864    8.64120741591956
H         7.50314349164381    5.77361446117087    9.64220883424784
C         7.00374318200953    5.92211574676685    7.56802881160855
H         6.13688204751537    6.53247579345954    7.76830309442334
C         7.32735680605357    5.58570170617574    6.27804116059704
H         6.72401625895092    5.92869996217459    5.45167939368693
C         8.83181323189115    4.42254284112759    4.68727075525576
H         8.16369437333174    4.68595063505615    3.86571174360068
C        11.34876050877635    2.93529838200067    2.99845207100249
C        11.82561421863580    2.58203959473059    1.65062143651450
C        13.10834235228057    2.05800788526959    1.49759897386223
H        13.72762469313561    1.92845275951408    2.37323313087880
C        13.57907267432933    1.71838963293961    0.24440314069081
H        14.57238223674646    1.31496862170520    0.11806480721644
C        12.75675370434067    1.90540389259101   -0.85499910004424
C        11.47865338975115    2.42727217151054   -0.72428253340855
H        10.85954220001691    2.56659158137827   -1.59733225308569
C        11.01552219772629    2.76664076401734    0.53128059765753
H        10.02869511793794    3.17855098338165    0.66531413069246
C         9.56223037672573    4.60943923648703   10.71286931749638
H         8.59594915690426    4.24377179829195   11.08930320163078
H         9.57597476107351    5.70559320342438   10.78385812750779
C        10.70479860099569    4.01355564469964   11.51949508137813
H        10.68654290370262    2.92980059483853   11.44299774446162
H        10.61317250243612    4.30146374883532   12.56301399920065
H        11.65382043822158    4.37045648169156   11.12916681166111
C        12.84758985221830    1.35668788921226    6.54464283913248
C        13.99290572076761    0.74304056495590    7.04115430365319
H        14.81299760498695    1.36551359059190    7.36855325274125
C        14.08334280417188   -0.64884194049428    7.11849021385612
H        14.98889109189036   -1.08833819346138    7.51073352169529
C        13.05821529106331   -1.46117183457138    6.70450990888095
H        13.14281784328900   -2.53600469439745    6.76259621940181
C        11.87442853108008   -0.89509080884578    6.19129291759503
C        10.77176550859317   -1.64313893220819    5.72903639330354
H        10.81287346044487   -2.72301770209265    5.76062915040504
C         9.66972297120653   -0.98874036240437    5.24536892736801
H         8.81133714097833   -1.53158506613391    4.88067901383058
C         9.66024454467391    0.41595277592268    5.23008556003687
H         8.79540589541243    0.95604387568609    4.86061757508651
C        11.76279761019962    0.51779559163100    6.11871368066413

