47
CSD_code = JADHUU | q = 0 | S = 0 | Stoichiometry = C21H14BrClN3O6V | MND = 6
V        -1.32010437898152    3.33197527724294   11.89775742788459
Br        0.45028671364763    4.77381510210767   15.70337090441164
Cl        1.31453888352236   -0.45896709037041   17.30454043075980
N        -0.67443654430428    1.46604855940624   11.59560402293152
N        -0.96150250284590    0.96832344300929   10.39472236864567
N        -0.74962906908891    5.74923315615614   10.91204240360524
O        -0.15764830588251    3.36679925258009   13.18196542964963
O        -1.73607631024100    3.05041562843651   10.08314212016622
O        -1.18876996582617   -0.76061470477080    8.41054157245397
H        -0.94043468391260   -0.43811836408027    9.30395489832191
O         0.60929467432290    3.99888295164054   10.72126255977898
O        -1.56193544602527    5.00836869714535   11.66463632184114
O        -2.58120294266949    2.80672211851023   12.56112476644117
C         0.14543827846279    1.11132475403294   13.81716559554681
C         0.13625845768988    2.50389620047136   14.09539781064529
C         0.49570405626932    2.91520797268230   15.39015219017761
C         0.84908921753895    2.02560149163414   16.37851610856558
H         1.11150784101332    2.37512992754448   17.36457954584858
C         0.86305857038515    0.66459369450792   16.07601219860694
C         0.52452441519254    0.20861978611873   14.81884157614700
H         0.53801790127828   -0.84862851877362   14.60460132587269
C        -0.20014802096003    0.67485997659909   12.49945467297849
H        -0.06373418206378   -0.37756817584720   12.24638215767350
C        -1.56296839972331    1.87172821332308    9.63837548262996
C        -2.01493514123551    1.50805334191281    8.29517829838052
C        -1.80917431867245    0.22454053115713    7.75247669878615
C        -2.26889421198116   -0.04007199927389    6.45988263750250
H        -2.10301391455820   -1.02751618732499    6.05907827180361
C        -2.91685678762598    0.93005026840007    5.72716161827473
H        -3.26640460246746    0.70204008427431    4.73141634529823
C        -3.12556830111503    2.19657446099350    6.26245607258183
H        -3.63727385353169    2.95202878219247    5.68679418330018
C        -2.67751646560336    2.47665756095989    7.53283112177345
H        -2.83202488500775    3.44978243591043    7.97674907089608
C         1.27711189821503    6.00498961698753    9.61449833330250
C         1.36455361443545    7.38950366165918    9.74817778889164
H         0.78430602055021    7.90844426857104   10.49676428581778
C         2.23531292912315    8.10409084700294    8.94563790410875
H         2.30699552109752    9.17555080222740    9.05604450705402
C         3.01780308061497    7.45077745973270    8.00651197272233
H         3.69258657201619    8.01588720688115    7.38152327598258
C         2.94181042714883    6.07343745902285    7.87740983289178
H         3.55671841233221    5.56206734099919    7.15261486621951
C         2.08043021322086    5.35151660069873    8.68162076660978
H         2.01060085257579    4.27723071395096    8.59918700412834
C         0.37827601900876    5.17617370541538   10.44778659993558
H        -1.07497133533722    6.68484168834086   10.68385465215722

