108
CSD_code = JADKAB | q = 1 | S = 0 | Stoichiometry = C48H47NO10PPd(1+) | MND = 5
Pd        1.03120879946312   10.44061958194649    2.38779170842938
P         0.91290748010998   12.75858110107489    2.72068890952582
O         0.65232263312013   10.02004004104248    5.40809176688586
O         2.53481457099726   10.19628737091737    4.19778097277811
O         2.32903168726479    8.93806120588604    7.57575091586356
O         1.58360512834046    6.83490876362644    7.83928427973567
O         4.07132387194320    6.94475381180766    6.09481975826784
O         4.76897077661576    7.32132537925591    8.19516716750559
O         5.65690273919058    8.34435544287096    4.18603298367055
O         5.17207320335424    6.66855290837343    2.77176261620283
O         3.70595838502553    9.44826935472909    1.67533446648753
O         5.80502646613036    9.03735086170844    0.99862420817336
N         0.16440725293546   11.10765894555601    4.67280540153909
C         0.23389265801548   10.50069477911543   -0.55190857113689
C         1.59695552828584   10.70209853113312   -0.79035003819984
C         2.03552065922731   11.14513670105834   -2.02215109305338
C         1.12069071971532   11.39245200763845   -3.03466266371398
C        -0.23306804096915   11.21046355591955   -2.80392991315105
C        -0.67879257605019   10.77427522093547   -1.56903857846871
C        -0.20395804059499   10.00964597347553    0.76152695595432
C         0.34957707249081    8.78699850346477    1.25731542496328
C         0.04304674111718    8.41260125184058    2.55977741385431
C         0.60598693475392    7.29554046525972    3.29072461656797
C         1.76769865827278    6.62981842550536    2.87999901654023
C         2.25580028771001    5.55606724716845    3.59800377842137
C         1.59709964488806    5.12134727222590    4.73817887921314
C         0.44882097920557    5.77172949260815    5.16472595247348
C        -0.03752687352188    6.85228280013654    4.45526894937092
C         1.36783540048083   13.92705800900328    1.39129358966471
C         0.78194575483273   13.70864724085259    0.14434313359688
C         1.09031734033641   14.52029632182661   -0.92917332116441
C         1.99494668029407   15.55906389125458   -0.77119932050941
C         2.57318959285946   15.78819921276972    0.46583200786873
C         2.26431424377400   14.97858514506112    1.54636297201736
C         1.70620198945420   13.47292737436610    4.20079011497478
C         3.09569048864399   13.47212010792683    4.29295853904672
C         3.72681150272133   13.97462950987637    5.41661101517356
C         2.97580776159132   14.48478097709689    6.46303637536586
C         1.59361405395262   14.49992895476390    6.37328138745897
C         0.95954689183424   13.99690173360192    5.25096693256971
C        -0.86440136990067   13.11703906388576    2.97969150871434
C        -1.47155229458327   14.19142437481073    2.33657130406772
C        -2.82822784013984   14.43468476932614    2.46699271513498
C        -3.61725041140629   13.59414329848568    3.23701892649279
C        -3.03601588599060   12.52916975316096    3.89504113388084
C        -1.66426907912526   12.28329131586842    3.79342335633987
C        -1.10220028773094   11.19356318765427    4.56093220797601
C         2.04407885690104   10.05798646782987    5.50666065367970
C         2.47002570818442    8.74478499013995    6.18115650390166
C         3.92307399787808    8.33426938653583    5.86020423873954
C         4.28035015476840    8.58857332655053    4.39316771111722
C         3.92566202409291   10.03760268865140    4.03801579330959
C         1.92539286224692    7.87844757703974    8.32213778772753
C         2.00276058062802    8.20475324761858    9.77618400617764
C         4.46868845108649    6.54964513482029    7.32708424058568
C         4.44376193149664    5.05936545693413    7.43097798713915
C         5.99110345839822    7.34241093611296    3.33539435450635
C         7.47147548453262    7.24744794746254    3.18217193213839
C         4.23782959383475   10.40325583912551    2.58557692104069
C         4.63242699056936    8.80554504462557    0.90499099429340
C         4.02339848035845    7.82010819828469   -0.03645763855999
H         2.30390812901851   10.54788364179506    0.02600372520666
H         3.08914668293809   11.30408379913520   -2.19500196597138
H         1.46265117434416   11.73513135180198   -3.99890457009165
H        -0.94649272650596   11.41089696766561   -3.58856830349409
H        -1.73510093182552   10.63128232476121   -1.39256415517210
H        -1.23700723883324   10.24911498257929    1.04033110609623
H         1.06980572337107    8.23594820483561    0.66168345769241
H        -0.88001373600490    8.82130613049953    2.99240224886295
H         2.29601705874408    6.96265559663547    2.00038949276700
H         3.16001118774430    5.06799792845152    3.26934163307299
H         1.97601301297929    4.27953600708007    5.29517115533570
H        -0.05616347740598    5.44388142833055    6.05920656149834
H        -0.92975987238643    7.35947971735632    4.79447575385872
H         0.06497830110045   12.90678133380322    0.03424733914697
H         0.62641647678931   14.34140930250501   -1.88722684911429
H         2.24319070825839   16.19221933702449   -1.60889303633063
H         3.26760315779974   16.60456845460441    0.59456649004776
H         2.71281451955758   15.17882459046209    2.50802135380343
H         3.68860058535050   13.09197574588335    3.47245635353520
H         4.80526013053492   13.97285787842753    5.47315667230445
H         3.46671485741123   14.87494241207982    7.34107369048930
H         1.00508110397918   14.90734680852045    7.18127994080302
H        -0.11824826214347   14.01744929688869    5.19056083833310
H        -0.87568918241101   14.85438514216808    1.72764423934150
H        -3.26893005311606   15.28140937941277    1.96395317911466
H        -4.67670524321796   13.77459050656741    3.32938544325013
H        -3.64057847695182   11.88145617756076    4.51293072953019
H        -1.77760966659451   10.49218359465022    5.04981626541450
H         2.37511401248955   10.91808654048031    6.12076733773775
H         1.79956381818485    7.93603687797130    5.85421566296482
H         4.60732657356500    8.88493367474416    6.52256157124908
H         3.69526910063898    7.89880096393662    3.76644861806700
H         4.46531200316253   10.73016066343060    4.70261135413691
H         3.03610667851370    8.04709193602500   10.08602678751933
H         1.74804575125433    9.24572743435230    9.94726268695204
H         1.35669055279502    7.54196884231131   10.34325317501549
H         3.43378113789361    4.77347366943199    7.72441083366587
H         4.67084503899579    4.60947219346492    6.46972546417765
H         5.13968316679878    4.72779507924832    8.19550583877579
H         7.74525799875264    7.83903798966295    2.30826591779033
H         7.97403034745442    7.65020139309999    4.05524279494841
H         7.76105347575095    6.21649484323791    3.00166293217296
H         5.32233621865317   10.46657895936628    2.44100500527076
H         3.75592929862769   11.36248611049578    2.34946365180581
H         4.03424324314728    6.84523792751726    0.45188014967407
H         3.00838460462771    8.09467081860573   -0.30522269938579
H         4.64348258315442    7.75157856164358   -0.92628122137463

