68
CSD_code = JADPIO | q = 0 | S = 0 | Stoichiometry = C35H25CrNO6 | MND = 9
Cr       11.59543697483101   -9.26259018445932    2.36186706622741
O        14.39590740476634   -4.38764457508126    4.52741146120680
O        14.26777438422931   -7.31423204725137    5.97101885017705
O        11.04744411038203  -11.53472884500548    4.79437832582926
O        10.60690546667808  -11.24413290235496    0.37809865986346
O         8.80879378604759   -8.48226393137031    1.67740974376680
O        11.94441995953587   -7.69751169192931   -0.14413184985536
N        12.52978196194412   -5.69281312926810    3.93370270357861
C        11.52739374274009   -9.23399480534613    4.66499757294236
C        12.35417689237137   -8.16125242783311    4.25090280798523
C        13.43303716842666   -8.41147455492269    3.39271699857565
H        14.10446754442059   -7.60355030025112    3.12672618329530
C        13.72554167268286   -9.71735981916955    2.97902663810404
H        14.61237949810350   -9.91570762991656    2.39113427146087
C        12.90789405529254  -10.78050083666565    3.38556347234013
H        13.18351161871143  -11.79240268729008    3.11651585821554
C        11.82871884776736  -10.55440308590568    4.26102782258475
C        11.84382271227232   -8.27441859528845    0.85049941135906
C         9.88122509100876   -8.75523506251876    2.02531792136817
C        11.01764808614776  -10.49509767324245    1.16069844731277
C        12.15405707050862   -6.78860054639781    4.82305005099014
H        11.15575480761552   -6.67578874486587    5.25819343997824
C        13.58498846482580   -5.26092699188343    4.67357259373076
C        13.30605824605611   -6.32127955669373    5.76282847168024
H        12.95790929425858   -5.89479714568730    6.71143958272974
C        11.96727096363320   -5.29697003749555    2.71869871896282
C        10.69709781434262   -5.74486908794671    2.37078237487769
H        10.13736195887015   -6.37059570789725    3.04837648876410
C        10.14697672319781   -5.36603235382026    1.15989207163929
H         9.16570909745499   -5.72412030882177    0.89058804831607
C        10.85355820953315   -4.54423078434038    0.29886723628353
H        10.42481123670429   -4.25869486403938   -0.64904057717316
C        12.11227911612463   -4.08912521384570    0.65618068419690
H        12.66394981282225   -3.44403272494466   -0.01083079125718
C        12.67596234314789   -4.46089405018377    1.86186509547777
H        13.65427237358347   -4.10956616671809    2.14901602123625
C        15.26031638112039   -7.07654298774996    6.88927075638735
C        15.58726711302667   -5.81812376232149    7.37414598441259
H        15.07994688577127   -4.93842774026359    7.01087774153302
C        16.60342480956132   -5.69179928779166    8.30694173691869
H        16.85556182312779   -4.71062798306185    8.68021632738533
C        17.29598176655321   -6.80239283412675    8.75347937249903
H        18.08552888712525   -6.69401697105957    9.48124847601006
C        16.97743516598602   -8.05487150940420    8.25317588650569
H        17.51809694537938   -8.92716197699102    8.58936994645027
C        15.96391450831721   -8.19583415417365    7.32666845727834
H        15.70257744932413   -9.16389638866890    6.92743329705186
C        11.01590707956755  -12.78875522147005    4.14664280886370
H        10.81827817115081  -12.67235023623408    3.07584757492198
H        10.19662018400794  -13.33414802750879    4.61109880190144
H        11.94557894511935  -13.34729146041986    4.29571307612244
C        10.46199872051083   -9.03182322160997    5.68012695710611
C         9.14182663262110   -8.97609284069084    5.31161125159267
H         8.87290422074926   -9.09241450705206    4.27150100746329
C         8.13951857626758   -8.76056023412832    6.26838620720027
H         7.10962873635483   -8.71930345335172    5.94779473694604
C         8.46432354093566   -8.59575629717309    7.58511743208882
H         7.69722575758959   -8.41696763230492    8.32459211155736
C        10.17190846258618   -8.50432171723630    9.36176190292857
H         9.39196688269860   -8.31904874486681   10.08644503118628
C        11.47914066876693   -8.58426342893140    9.75187483699419
H        11.74873295372829   -8.45675024276838   10.78989607275362
C        12.48263052394354   -8.84503297448461    8.80649280299485
H        13.51178549509979   -8.91750180282465    9.12739548554987
C        12.16327031114325   -9.00667868338398    7.48738364833248
H        12.93926254906706   -9.21667176864255    6.76705558459045
C        10.82690186267906   -8.90082008543724    7.04773389072465
C         9.80853947908616   -8.66321275321105    8.00773891897907

