35
CSD_code = JADQOX | q = 1 | S = 0 | Stoichiometry = C10H16AgN4O4(1+) | MND = 2
Ag       -1.23953528727373    0.83892317527808   10.33328016200840
O        -0.98433338370074    4.14801330864174   11.39056962425392
O        -2.78696724721848    0.27343234174259   13.33743815435331
O        -1.56199660386435   -2.43036644631124    9.39088130466037
C        -0.70355937937784   -0.34961438904455    8.62378492284997
O         0.33399709574924    1.29420576459464    7.24952840509417
N        -2.38980595363669    1.57029141966392   13.16955276049359
N        -0.91852189497382   -1.66419004709904    8.45979593944249
N        -1.61274876314396    3.31914785791673   12.27663847156582
N        -0.10094285241050    0.02015922645875    7.48299309034249
C        -1.78420570034080    2.00678389348445   12.05419613422336
C        -1.88545136312676    4.91913029661745   10.60354530894328
H        -2.53352129016764    4.27303924969686   10.00399310558664
H        -1.24629046267039    5.51060122836005    9.95351175719348
H        -2.49165715853324    5.58195208645221   11.22604418878993
C        -2.59494737652053    2.57626572297831   14.06929103755318
H        -3.07473469927069    2.42362167225506   15.01389054773896
C        -2.09550438253940    3.69964871860849   13.49567468726588
H        -2.03872769517939    4.70638619429316   13.85493023180636
C        -0.67870291602668   -3.21737192580150   10.18254752333240
H        -0.12016052405152   -3.92881432105004    9.56919159979124
H        -1.32887329513705   -3.75590384337814   10.86681476122211
H         0.01406417722843   -2.58392423199184   10.74450770079749
C        -0.55617425378199    2.05434315912514    6.43976302570160
H        -0.66849171830133    1.61162891047268    5.44689407852343
H        -0.08543845024633    3.03009430959124    6.35456029244230
H        -1.53497950417775    2.15171729530588    6.91878592469912
C        -0.46595773874658   -2.11154256504767    7.25207501387350
H        -0.55872144374115   -3.13013623923478    6.93645654873908
C        -1.90226107419244   -0.48658635473740   14.15359986667421
H        -0.90307856963610   -0.53376801319115   13.71032572544876
H        -2.34240411589249   -1.47965452127361   14.18546014621188
H        -1.84292240233107   -0.07782543946232   15.16540902690916
C         0.05947423149047   -1.02943380224344    6.62481770190117
H         0.52998199575079   -0.93145369166385    5.66835122957036

