73
CSD_code = JADWET | q = 0 | S = 0 | Stoichiometry = C24H42N4Si2Zn | MND = 4
Zn        7.44882269487346    5.33916973184295    2.23949112539451
Si        7.32188102344137    2.59659017762419    2.92195325147362
N         8.52824620304168    3.79879312347041    3.52194476282253
N         6.69915635777130    3.62767698917883    1.71366670985347
C         5.80015432234370    3.35160254559546    0.71954749094038
C         5.20786451875806    2.09481424958302    0.55631579673808
H         5.47117237216848    1.30400754168077    1.24153730891717
C         4.30276171802874    1.86783250456544   -0.46071944865432
H         3.85855172205556    0.88771691817387   -0.56637090265807
C         5.44224020654970    4.36197485268793   -0.18012332568405
H         5.90638569161820    5.33696750567066   -0.06067086781303
C         6.05671686224689    2.17214719881211    4.29090009100603
H         5.57994454045042    3.06373749406017    4.68532487682415
H         6.48820724877956    1.62539466608372    5.12224850008111
H         5.27145903731445    1.55515169484135    3.86715574750333
C         9.82848947670307    3.65339341160457    2.86586062694985
H         9.62922859616944    3.52270374826940    1.80015018912215
H        10.34306450260952    2.75145156729027    3.21943086131861
C         8.64121505685110    3.93283987823508    4.96792546505769
H         7.62869979858704    4.03125632679523    5.35877680849249
H         9.17626479943351    4.85766944249699    5.20596658077521
C         8.17925843081974    0.98914610491543    2.34696620364344
H         7.46396171971460    0.17564074915599    2.28976256163557
H         8.97182428652823    0.67688815893528    3.02003360851398
H         8.61126412875712    1.11017436265826    1.35911148985265
C         3.95768735591918    2.87940419576440   -1.34186894301545
H         3.24812640409995    2.69546733499501   -2.13454814984317
C         9.33108956860780    2.76865526449576    5.68139765373737
H         8.88995111792246    1.82287675280273    5.37857189376550
H         9.20979941895806    2.88040527350219    6.75637115740223
H        10.39586163185488    2.74242282603225    5.46440072087797
C        10.74733621779676    4.85729750766521    3.04065880728779
H        10.22137961911150    5.77263826289393    2.77608838918406
H        11.60557980491140    4.75339130589892    2.38150026664085
H        11.11316628643644    4.93867631154670    4.06171459934576
C         4.53668015442768    4.12997457016980   -1.19314780593159
H         4.27980838579754    4.92841016581844   -1.87510701202534
Si        7.57579880365316    8.08172044936532    2.92195896193439
N         6.36944752959822    6.87951412649558    3.52199736358763
N         8.19855460576761    7.05064778413837    1.71367508099853
C         9.09758576753066    7.32670609423202    0.71957182230319
C         9.68985380517553    8.58350207927575    0.55630841065573
H         9.42653981619193    9.37431600675317    1.24151511017107
C        10.59493958353228    8.81047936672635   -0.46074404991820
H        11.03919332221243    9.79057510506924   -0.56636401072907
C         9.45546022579083    6.31634152487606   -0.18012877147614
H         8.99131606304670    5.34135055094654   -0.06066979916288
C         8.84097966514388    8.50616699027858    4.29088793198158
H         9.31775474677405    7.61458073496963    4.68532138511845
H         8.40946923632907    9.05291121182225    5.12222895356610
H         9.62623730531893    9.12317464245543    3.86715594244295
C         5.06919851699697    7.02490243833748    2.86591073193995
H         5.26844928277629    7.15554041658979    1.80019645141442
H         4.55463518481616    7.92687340039689    3.21943097496632
C         6.25652497213030    6.74537854287996    4.96796175562167
H         7.26905914135391    6.64696657525989    5.35878267302324
H         5.72147605832191    5.82052506420031    5.20594807212199
C         6.71841965998071    9.68916801841553    2.34698479183645
H         7.43369848429912   10.50269390235533    2.28978863981163
H         5.92585728829989   10.00138423190050    3.02007572165550
H         6.28639701311576    9.56814325322613    1.35913466506616
C        10.93999118695011    7.79891082293390   -1.34190788203129
H        11.64961813071612    7.98281943113920   -2.13453363639294
C         5.56662502018115    7.90966695471084    5.68127027941451
H         6.00773117331167    8.85549168905934    5.37850960789433
H         5.68796311340735    7.79786565157703    6.75621683704736
H         4.50182912533321    7.93589378320305    5.46436603961163
C         4.15035582016055    5.82099026467392    3.04063411454604
H         4.67629842913372    4.90562783103280    2.77609262714065
H         3.29209938431135    5.92491147068297    2.38148845817035
H         3.78454610998415    5.73967047421995    4.06169334069156
C        10.36096976719600    6.54835126010503   -1.19319704797348
H        10.61792537973954    5.74987713992836   -1.87507863648686

