46
CSD_code = JADXOB | q = -1 | S = 0 | Stoichiometry = C12H21CdO6S6(1-) | MND = 6
Cd        1.05905236517827   13.76932714985148    5.80545178954203
S         0.26722781810111   14.59360784340582    3.35093578647969
S        -1.56982978977196   13.23419469867801    5.24573755698067
S         1.98476913679671   11.27001857569774    5.40008891103956
S         1.28494024848531   12.27901332049014    8.10295823864898
S         3.34243550022836   15.16481182476613    6.25010651668433
S         0.67139644315682   16.20679908792642    7.01644550705194
O        -2.17402096197672   14.11063210288099    2.84251513311853
O        -4.34114905044932   12.94207106605226    1.00678298183540
O         2.27599695573336    9.91344820586547    7.52641428590147
O         1.88015594592021    7.33104376678051    9.14671415164248
O         2.97980481960520   17.40635449342760    7.39288106403929
O         3.74465618800194   20.24782945134814    7.25189483814782
C        -1.23203108096978   13.96855206295464    3.77446348033545
C        -3.47612919319120   13.63548903681966    3.12735150376981
C        -4.38066796217467   13.98402152394277    1.95293038383741
C        -5.02082598454668   13.25168049302484   -0.17785816400877
C         1.86208238077655   11.09298296511439    7.06502224458081
C         2.23856362597720    9.68725641771974    8.92268277107580
C         2.87038499146872    8.33062634864228    9.20435366993847
C         2.40497249533182    6.03534004437954    9.23187594343920
C         2.34439531585052   16.33338662561685    6.92184355830504
C         2.20359040091529   18.43527165942457    7.97337236907614
C         3.11302912326681   19.61176173456106    8.33162589463012
C         2.87698824286137   20.80800303872944    6.29670145156996
H        -3.45377190407904   12.54930239262427    3.26969771936334
H        -3.83621394682335   14.10153177712932    4.05251509078642
H        -4.02978121236876   14.92433812048989    1.50346221273929
H        -5.41455839920488   14.12751809651595    2.30703985173178
H         2.78579012125557   10.48903728117395    9.43291895782074
H         1.20066516257393    9.69472720525495    9.27397795763847
H         3.33779978494058    8.33543570650633   10.20243157937554
H         3.65023258721428    8.14211694212942    8.45240501811058
H         1.41085677045393   18.73536503300836    7.27757378209117
H         1.71874968025537   18.06078179152289    8.88451177184582
H         3.93112727327984   19.25286365913383    8.95954855774577
H         2.50477149868696   20.33780955091895    8.89818327455718
H        -6.08492101883160   13.45145028182210    0.01194791076396
H        -4.58403288043905   14.12860904218666   -0.67304806237105
H        -4.92568191779604   12.38420486708430   -0.82801730617274
H         2.93872586166200    5.88150086605188   10.18031523005019
H         1.55980422750312    5.35194333795320    9.17702187270971
H         3.09630298171141    5.82797424296934    8.40483162892328
H         2.10965015846525   21.43111801500410    6.77469166797320
H         3.49851892599884   21.42851613757494    5.65290297321586
H         2.38807827097268   20.04343211485540    5.68519644342261

