26
CSD_code = JADYET | q = 1 | S = 0 | Stoichiometry = C7H12AuBr2N2S2(1+) | MND = 4
C         7.60163988143768   -1.73477964105877    3.54922301770924
C         8.49134772059090   -1.46183962106889    4.69062605770122
C         8.35974472807443   -4.01803796907292    3.56225248392015
H         8.36386470284973   -4.83369833013846    2.83995670201074
H         9.38094348409682   -3.63123472446231    3.63731393959607
C         7.90383319362065   -4.53194140530162    4.93222786327700
H         8.71370032033747   -5.11535584621168    5.36928893072656
H         7.03394477425183   -5.18105082254465    4.83619838124283
C         7.53100225798729   -3.34917060496583    5.83262726610512
H         6.54720778343275   -2.96527671039693    5.54483396401319
H         7.47198560903118   -3.67392728539217    6.87095215966591
C         9.42845026663348   -2.04163479662647    6.80917965049537
H        10.45288906345268   -2.04467929669773    6.43194503882130
H         9.31949949964413   -2.81039120514988    7.56787430279302
H         9.25252738019669   -1.06099953338629    7.25928927402269
C         6.56517502222426   -3.23174017518952    2.00456193590440
H         6.80156143046207   -2.61993488903546    1.12994450706134
H         5.55009778854190   -2.97438342928993    2.31331944122866
H         6.60529306668342   -4.28149815660961    1.73098273411618
N         7.49703215332171   -2.96119896160702    3.06851189101505
N         8.49799418249746   -2.27201382122990    5.73448010108677
S         6.71339058496743   -0.46836981461741    2.85543039027397
S         9.50531599738672   -0.10354293068892    4.65973787409314
Br        9.69640380400129    3.30330863582091    3.67479619322759
Br        6.87866211409013    2.95167607071359    1.91151471060159
Au        8.19819319018887    1.42831526421705    3.27473118929704

