95
CSD_code = JAFCAX | q = 0 | S = 0 | Stoichiometry = C50H38N4O2Zn | MND = 4
Zn        6.50560513911023    4.49454286159925   12.39408238147707
O         7.98448899980108    5.47957262260861   12.99828622579022
O         5.03577425001422    5.47356384570391   11.75862679944791
N         9.03512474607060    5.09567444795332   12.24824924695166
N         7.69892163586285    3.64224697736982   11.10739675198272
N         3.98158656539580    5.12295083686948   12.51988040584289
N         5.30450539588569    3.69436867551859   13.70668250199889
C         8.86971009631047    4.20206954359929   11.29794650501102
H         9.74943947430133    3.90672231026654   10.73643661779866
C        10.27335870234567    5.69348355548962   12.54277819854264
C        10.60330054435823    5.99308551300044   13.87058486346379
C        11.79980321044359    6.65429288445983   14.12436420177426
H        12.05520638237813    6.88780981372149   15.14770472369949
C        12.66384757726609    6.99017062621147   13.09842208437735
H        13.59093098746075    7.49803027193636   13.31742250332240
C        12.33348677549894    6.67822790156314   11.78949185789837
H        12.99787470318808    6.94552397737023   10.98174718056820
C        11.13749354059505    6.04506791027940   11.50926459737239
H        10.85802693157118    5.84917819113113   10.48492706443291
C         9.73014746731825    5.60204529239726   14.99356693114613
C         9.39666064497250    4.26673682824239   15.20090855462813
H         9.77369941899767    3.51064798657355   14.52584078628530
C         8.59369606574324    3.90425335005675   16.26551039732254
H         8.33885749632517    2.86621663925940   16.41861357655679
C         8.10809287771468    4.86999135364752   17.13100819753831
H         7.46663117500458    4.58543084425999   17.95218422258684
C         8.44102735105146    6.19923609097720   16.93535289843779
H         8.05940762155546    6.95591173858788   17.60587535725110
C         9.25630803060571    6.56306742843808   15.87902039808777
H         9.50754121462763    7.60147992729890   15.71755000455918
C         7.47934096033739    2.81094015712351   10.01274193643744
C         7.95336244655180    3.12555995532494    8.72778661859621
C         7.72129829279593    2.22899915513526    7.69102102733177
H         8.08086583578415    2.47408964268213    6.70159177182689
C         7.01802715935753    1.05633035631621    7.89742418362455
H         6.84749398237051    0.37612506857598    7.07632161850085
C         6.51468410034465    0.77210344803236    9.15681805289424
H         5.94488027070766   -0.13044240100687    9.32316679478602
C         6.74337311417966    1.64426420478144   10.20270316839757
H         6.35344296780091    1.43637805297083   11.18869658682542
C         8.62727399382451    4.40614567879631    8.44439303355798
C         9.83385625259039    4.43179521972289    7.75061828404059
H        10.28757780551517    3.50113889723622    7.43885676337819
C        10.46231332607029    5.63411453971755    7.47858922906578
H        11.40304790654281    5.64004105697632    6.94672003454638
C         9.88859352061523    6.82570923136668    7.88934019414581
H        10.38167230792038    7.76386793837279    7.68085554236881
C         8.67973195140907    6.80937930527698    8.56744658962282
H         8.22403123987059    7.73540332580358    8.88455603463712
C         8.05057090859273    5.61058276970674    8.84569466502327
H         7.10410347460990    5.60518112883378    9.36831180960350
C         4.13878994852370    4.25827743037012   13.49795518074038
H         3.25631304669060    3.98855762534211   14.06797408134320
C         2.74879721592426    5.72222517633389   12.20612797490291
C         2.42182361943290    5.98321519096204   10.86946468960781
C         1.23120578099224    6.64663883053525   10.59460770378893
H         0.97807336260704    6.85029619697423    9.56434755448109
C         0.36987823733087    7.02188315928603   11.60911640671931
H        -0.55271507304406    7.53066419685665   11.37390002870431
C         0.69720695393047    6.74805285919229   12.92730306006655
H         0.03500914806084    7.04621058078352   13.72599188003577
C         1.88753139358284    6.11348470844830   13.22772493766002
H         2.16502997518885    5.94725236357770   14.25782143421098
C         3.29163101822586    5.54991988150024    9.75947454975378
C         3.77346531453127    6.47885738486890    8.84457119787468
H         3.53113648880536    7.52389716854802    8.97365382870169
C         4.58530780055725    6.07540706037625    7.80005046161472
H         4.97318367080678    6.80757577113840    7.10631333644790
C         4.90682420056465    4.73792361303492    7.64583617314668
H         5.54553736024068    4.42248988889526    6.83384932298657
C         4.41328222492864    3.80376565684097    8.54099792659618
H         4.65919767451190    2.75932825267556    8.42026183411361
C         3.61370194306007    4.20602028947378    9.59380018450064
H         3.23043864629101    3.47453064382861   10.29206363620527
C         5.51641963246234    2.89567005218960   14.82681827149738
C         5.04453760526159    3.25403806658351   16.10105661363568
C         5.26851274499203    2.38817414594422   17.16532530311962
H         4.91063905854934    2.66695556659675   18.14641622538351
C         5.96184945314040    1.20372248754650   16.99593267621526
H         6.12621496722271    0.54791877803181   17.83787920105883
C         6.46321444419060    0.87621174418604   15.74630085040440
H         7.02535068881706   -0.03589420407410   15.60844300998674
C         6.24243596317502    1.71739680051746   14.67368936990424
H         6.63102354460105    1.47570829413256   13.69489758970216
C         4.38135780863917    4.54844609227095   16.34411799912083
C         4.96865016562956    5.73497351035385   15.90648451420965
H         5.91545185597050    5.70534609432091   15.38528210067849
C         4.34947899314492    6.94708643179720   16.14690116434472
H         4.81327694040402    7.85899307583025   15.80184630053853
C         3.14022325997618    6.99459199578894   16.82283708282209
H         2.65496488444590    7.94288754894188   17.00170550036372
C         2.55603859234206    5.82115995774335   17.26955458276409
H         1.61494310122698    5.85148695293309   17.79995016655852
C         3.17446459314577    4.60572791095422   17.03545517430703
H         2.71260491132870    3.68901778944099   17.37531894382434

