70
CSD_code = JAFCUP | q = -1 | S = 0 | Stoichiometry = C22H37FeN6O4(1-) | MND = 5
Fe        2.18269021855196    5.66964832758802    3.22923234312038
N         1.79295843737419    7.54856033527099    2.58673169581150
C         2.54430213666859    7.81988782643985    1.35851596896672
H         2.99850687911088    8.81930223790722    1.38444937853597
H         1.85667256011873    7.76864061329061    0.51362407868733
C         3.59932661139491    6.71942271635003    1.18613846889399
H         4.00858004328194    6.70791940999432    0.16785439589736
H         4.42462234863992    6.88774527340965    1.89048222514930
N         2.94883981435780    5.46610469392255    1.47131631493366
C         3.18152622829888    4.43635368294120    0.65342895721184
O         4.02537463211777    4.41840475061300   -0.25236374220245
N         2.29362612841393    3.39699013380911    0.88385899050348
H         1.72548803873899    3.59465583476550    1.69870032113628
C         2.63950024960286    1.99994615585493    0.69953214769957
C         2.86089004124301    1.72906395364834   -0.79256995164876
H         1.93457348977689    1.89041001460237   -1.33885659698367
H         3.19848542880093    0.70630823518900   -0.95387652145290
H         3.60633318335058    2.42705766075986   -1.16262375896684
C         1.46480868689245    1.17063470160646    1.21944870928933
H         1.32563414497656    1.36107512958098    2.27988231292608
H         1.64534935644115    0.10783169864985    1.06272792642640
H         0.55236030605008    1.45662136090452    0.70237367807509
C         3.91013054037128    1.65552762139684    1.49194491456864
H         3.76910852800714    1.94089716930827    2.53217543080080
H         4.74575326166347    2.22062528374451    1.08634123388998
H         4.13696232736465    0.59142898538089    1.43353162850118
C         0.34491799442163    7.65136662013842    2.39905173406022
H         0.07977421982461    8.51820660241006    1.77527304418083
H        -0.11773050175507    7.76670489367094    3.38155239322597
C        -0.13151077099608    6.33180651331849    1.79826816762684
H        -1.22693692759637    6.28841773708229    1.75209106565331
H         0.27537099993681    6.21403697068327    0.78615697284151
N         0.36615698988448    5.26579484154854    2.63020534649680
C        -0.52948339740473    4.37344654261540    3.05690900365797
O        -1.75044199746624    4.42534186392981    2.85427632244688
N         0.05787612202152    3.31164432386562    3.72779154693441
H         1.03671924447065    3.46449036985337    3.91966392312287
C        -0.67232856941058    2.41114838914923    4.59997642609676
C         0.34253782378639    1.52650982139537    5.32764010157066
H         0.94584322987209    0.97650485775906    4.60957525979610
H        -0.16991540155043    0.81441594897687    5.97247131503532
H         1.01000661234047    2.13189088628613    5.93731564579505
C        -1.51794046629309    3.18802696003063    5.62269989381774
H        -2.20479274391854    3.83184691955190    5.08088684098557
H        -0.88470293586726    3.80862564847800    6.25241522536942
H        -2.08568568625167    2.50448933002239    6.25218878402558
C        -1.60407483382413    1.54397239487489    3.74166893018432
H        -1.02317084806603    0.94044343514755    3.04924835177053
H        -2.24844416528753    2.20553733746383    3.17051663918565
H        -2.21037478740273    0.88975190868412    4.36598123029584
C         2.25786271741919    8.30938846622830    3.73709119446758
H         1.95241466008009    9.36779246683394    3.69689916544180
H         3.35029841475294    8.24929642258439    3.74456064219120
C         1.75475035184650    7.62880032440242    4.98038176832049
C         1.46993028520007    8.29140663842813    6.14917341865565
H         1.55114904236472    9.36944253736625    6.18623361694621
C         1.08801093785011    7.57024218338085    7.28175711308665
H         0.85279843321712    8.06926529708297    8.20898387453981
C         1.03841045030079    6.18309435195452    7.16527065565252
H         0.77059886077122    5.57037482070656    8.01415789820902
C         1.32457682664053    5.59149146160668    5.95796512072389
H         1.30595323987695    4.52210670946334    5.83219380210873
N         1.66640802817093    6.27595942573445    4.85042085855533
O         3.08672162633021    3.89145858370887    3.98533637858096
O         4.21161788884518    5.76266480065139    3.92932818512085
C         4.16437502383901    4.52366508140686    4.09017394307607
C         5.44153012743667    3.76471404720013    4.42308157784856
H         5.91357432057816    3.47768929988240    3.48553341880837
H         5.20730095565097    2.86744741235720    4.98935365373763
H         6.12114498377974    4.40511474511423    4.97887900002906

