79
CSD_code = JAFCIF | q = 0 | S = 0 | Stoichiometry = C34H38N4O2Zn | MND = 4
Zn       -1.24408593593385    4.65839238583476   20.50761594277692
O        -0.52255685362357    5.50562992256433   18.97376487131949
O        -1.97766589823809    5.46725160286216   22.05757708765478
N         0.56735880612924    4.76815719474739   18.63415922331133
N         0.33646063786583    3.49071733649459   20.50160236641682
N        -3.07603195426740    4.72758133478466   22.36362574417619
N        -2.82591771562436    3.49480026000926   20.46940247233160
C         0.96355980689066    3.77228836944770   19.39074668747891
H         1.85516331759690    3.24478031672405   19.06457921808280
C         1.25767044467659    5.18580933739775   17.46401222146593
C         1.18106322150707    4.41248325059139   16.30582477185564
C         1.86481009503325    4.84945967928245   15.17804811469873
H         1.81873747490793    4.26173887118077   14.27292522397302
C         2.58517378611689    6.02898910850949   15.19939725114029
H         3.10688899516638    6.35700366052886   14.31265009452403
C         2.62908627085847    6.79650959556197   16.34960848128068
H         3.18384125186480    7.72311488041380   16.35916288247493
C         1.96674345695030    6.38875603299341   17.49819745010359
C         0.37821355669252    3.14745802804739   16.26534700500367
H         0.97643609896499    2.30176886283922   16.60468812546355
H         0.05371396754555    2.93992826560548   15.24864042485858
H        -0.49836372911642    3.22049198330596   16.90468705864848
C         2.00611705244051    7.19621783459991   18.75618588707720
H         2.48807721792377    8.15531499008737   18.58754347514950
H         2.55331818684906    6.65983909020866   19.53231068000623
H         0.99339208370979    7.35968297978870   19.12160508170777
C         0.65960191366768    2.37343474425532   21.28097039440586
C         0.93326625351308    2.57870283881460   22.64151524336290
C         1.16947179380433    1.48226461281965   23.45494126622046
H         1.38047128152146    1.63813644268987   24.50335870671974
C         1.14324884851181    0.19788077089726   22.94105357558477
H         1.33124567891024   -0.64838490614468   23.58498511335456
C         0.86849966776078    0.00396121701486   21.60127211449387
H         0.83697173898939   -0.99834643540285   21.19786996980800
C         0.61866950610618    1.07599219498374   20.75494516425502
C         0.98982554848963    3.96896002569874   23.19602674400549
H         0.07383699805073    4.51837287587501   22.97604987043240
H         1.81138144424802    4.52276021672385   22.74170518443978
H         1.13857250817279    3.94760792402298   24.27295863148838
C         0.27362002045182    0.81388833662339   19.31805750583368
H         1.17013003989057    0.81316547677973   18.69708285982357
H        -0.41242565787011    1.56745866517829   18.93713096048933
H        -0.20022670433282   -0.16013874047250   19.21907413708623
C        -3.46719372052796    3.75296135391272   21.57770478864464
H        -4.36529555599582    3.22169035127683   21.87933509984290
C        -3.78736260714321    5.12682511428889   23.52785631506631
C        -4.50989670823616    6.32146970635765   23.49379241448725
C        -5.19351499987127    6.71082485317375   24.63630255103097
H        -5.75929365531480    7.63074617604673   24.62725181096157
C        -5.15651761839411    5.93312425015120   25.77995540098572
H        -5.69461332422711    6.24691015927190   26.66206616239499
C        -4.42309203702935    4.76154582535941   25.80109793678232
H        -4.38360680652551    4.16599128771711   26.70138747597633
C        -3.71875572297562    4.34287478620531   24.67909650653584
C        -4.53927602675094    7.13899010086208   22.24201399320211
H        -3.52263638237789    7.32432951469255   21.89839181944619
H        -5.04220360947805    8.08760015367347   22.40864697925463
H        -5.06048183620639    6.59930802746715   21.45044004382493
C        -2.90339867589101    3.08579536071372   24.71510959911523
H        -3.48358687828086    2.24101262810076   24.34359418530346
H        -2.60141660813802    2.86128149202499   25.73509528473694
H        -2.01270798793088    3.18134978882782   24.09852676694851
C        -3.14383650153937    2.39789261875763   19.65947346811118
C        -3.41154618823441    2.63775456497961   18.30352558064266
C        -3.64055429354406    1.56183138523691   17.46113689825772
H        -3.84647932290949    1.74393689515017   16.41594027423453
C        -3.61386982879058    0.26486431762468   17.94241807969609
H        -3.79628635238187   -0.56504111286408   17.27597795491982
C        -3.34639916002747    0.03719329029666   19.27842999668214
H        -3.31532777093649   -0.97504776396698   19.65623037909903
C        -3.10327578701170    1.08787897943879   20.15300232305228
C        -3.47000753305185    4.04189506561382   17.78531263023721
H        -4.29603214671978    4.58054630506569   18.24969960096130
H        -3.61297736028931    4.04846090211738   16.70741761214513
H        -2.55743739221593    4.58872780073524   18.02467759055613
C        -2.76587139813924    0.79206357616635   21.58521786128393
H        -2.29327563139190   -0.18439600009364   21.66408405178629
H        -3.66561023512209    0.77804246018624   22.20138740850855
H        -2.08142685918673    1.53628435068044   21.98719787052744

