53
CSD_code = JAFDAY | q = 1 | S = 0 | Stoichiometry = C20H20AgO8S4(1+) | MND = 4
Ag        6.00373838321788   12.00698508446949   11.41353606347147
S         5.48588731529819   10.38179378139148    9.19523034760773
O         9.10911947144886   10.36319954269758    8.49810277078769
O         8.26443440616888   11.25425894061185   10.35320447197090
C         5.79597104535039   11.34346563201874    7.70855717964966
C         5.58319191005613   10.69369197379172    6.49899383885322
C         5.79313597460929   11.34708236056235    5.29875391503235
C         7.07095260167261    9.47855915433829    9.25611425604997
C         8.19475547842620   10.45490164516475    9.45035895627838
H         9.82893983892890   11.00570447717820    8.61827900446336
H         5.62578804570759   10.82728949995709    4.36865442085634
H         5.24597712451183    9.66882788437634    6.51367347800357
H         7.20623820309150    8.89766427358386    8.34577597672281
H         6.97837391445712    8.83556908337372   10.13096314503689
S         6.52119680002610   13.63234005338146    9.19517495199113
O         2.89775375991219   13.65112280636487    8.49841060898141
O         3.74262031558177   12.75994553423664   10.35342065487357
C         6.21067037433718   12.67078109055364    7.70852039773323
C         6.42376743331376   13.32038528023079    6.49893290001443
C         6.21421223434407   12.66680250302455    5.29872799218897
C         4.93610739218936   14.53555061874448    9.25626745857301
C         3.81204266508728   13.55959782377820    9.45080906494228
H         2.17806141683585   13.00844448767658    8.61832527121923
H         6.38151421066678   13.18657188985560    4.36860265628305
H         6.76104679579966   14.34522896012813    6.51356328977545
H         4.80077553298561   15.11661212213062    8.34605019249346
H         5.02894009868532   15.17841441595675   10.13115940831420
S         4.37791919076411   11.48925912688505   13.63359942382175
O         4.35953829688223   15.11280594759974   14.33016823889694
O         5.25044668228254   14.26793895167165   12.47499873821164
C         5.33992711287521   11.79985221540616   15.11994297352650
C         4.69009458005102   11.58754851088914   16.32954230540945
C         5.34369259330516   11.79717473958080   17.52971777827831
C         3.47490637233097   13.07448040608505   13.57230852206407
C         4.45113969670886   14.19833084427021   13.37784854261695
H         5.00206624595345   15.83261381900843   14.21006615245709
H         4.82420749907235   11.62918313637768   18.45984786162034
H         3.66548682721240   11.24961092571543   16.31493838747489
H         2.89400953568097   13.20982113962972   14.48258295829786
H         2.83192855065301   12.98170486354201   12.69748274894336
S         7.62917772632009   12.52511016519163   13.63340923909620
O         7.64757885152504    8.90137388636848   14.33031639163815
O         6.75641793181794    9.74631412449950   12.47531393691316
C         6.66749756131928   12.21400725764102   15.11985865561910
C         7.31720300009430   12.42694901004252   16.32940937592140
C         6.66360606623784   12.21765081196419   17.52964939078775
C         8.53201079623261   10.93980091068251   13.57259337779676
C         7.55572686632355    9.81595534480276   13.37817011631036
H         7.00517251987234    8.18146727584197   14.21010997048352
H         7.18344029496552   12.38487020843130   18.45975064373526
H         8.34187201741554   12.76471744581388   16.31471085444430
H         9.11281422304615   10.80449302197054   14.48296526583917
H         9.17510621825216   11.03247499041296   12.69783547767521

