84
CSD_code = JAFFOL | q = 1 | S = 0 | Stoichiometry = C31H50IrNP(1+) | MND = 6
Ir        7.03473714179274    4.14248997172734    5.43469108129576
P         6.74911787372610    3.32790103860241    7.69923875746179
N         8.80354513797500    4.95578058657017    5.97271071319612
C         4.93437763090556    3.94617295484379    4.98255398261200
C         5.59710334213854    2.87569136451538    4.38735572070091
C         5.84812189066398    2.76332128366920    2.89877670864084
C         7.21638403638530    3.33113191921121    2.48942118705859
C         7.67325032391467    4.46860298431606    3.36395887059865
C         6.89561447251878    5.54869425243646    3.74630102830610
C         5.47545734681881    5.77162506490693    3.28632057263352
C         4.44286046915947    5.17746437204170    4.26026177376360
C         8.89012066811747    6.19906224880824    6.46324592403378
C        10.09276948663431    6.82392907525536    6.73119255431995
C        11.27714471638491    6.14669988037397    6.48080954198683
C        11.19514608486416    4.86527718040532    5.95572858106231
C         9.95132484464232    4.31455852725332    5.71482267392752
C         5.64976553381284    4.38612572213149    8.78414524970754
C         6.11325095011110    5.84150189805085    8.70243007231235
C         5.36590067020207    6.70164710287414    9.71963673514102
C         3.85940779847069    6.61130542970349    9.50037780347464
C         3.40246842922598    5.15694608942493    9.54566777410310
C         4.14994390941013    4.33189321891381    8.49724218307836
C         8.34450099818782    3.33960015197196    8.70480808501186
C         8.27783444891142    3.35788575110698   10.23370294088537
C         9.68716102653404    3.56532573810723   10.79530340111400
C        10.64850514508332    2.48073204233116   10.32096283493724
C        10.67872541645139    2.42796893635609    8.79679451943309
C         9.26590649022545    2.20001785446360    8.26738120978808
C         5.95325705828408    1.64362203575457    7.84662154714127
C         6.65816116037173    0.55430930734418    7.03344979640254
C         5.72877639096701   -0.65089475938087    6.90144164034609
C         5.39116700666455   -1.19540491549736    8.28731392801519
C         4.77303851059440   -0.10907640877761    9.16344713659791
C         5.69106517967341    1.11114896048903    9.25546353415397
H         4.35308169628050    3.71985066418172    5.87257622420848
H         5.51272692271020    1.91610593153945    4.88821831230793
H         5.04623148112594    3.27226136593753    2.36489535175884
H         5.80742941416454    1.71212355210442    2.61230116275707
H         7.18815266744125    3.66876014760763    1.44921812800014
H         7.96421302875554    2.53804164407064    2.54627907047393
H         8.75228666235352    4.61059365919921    3.34637516993551
H         7.41706929754133    6.45291799324887    4.05228682789093
H         5.35256653098777    5.34324941645293    2.29224640177092
H         5.29618259847773    6.84368691318572    3.19928005348401
H         4.18533456188091    5.92933801411432    5.00921252073419
H         3.52074310244907    4.93339551910244    3.72493699818189
H         7.95718760479349    6.70962627930625    6.65291104674586
H        10.09740746676856    7.82570881957736    7.12926593072283
H        12.23213353677564    6.60353455638243    6.68465075532256
H        12.08359062224569    4.29694988698444    5.73292532220473
H         9.86844341426973    3.31898812476339    5.30138005221600
H         5.79547392039648    4.02421317741318    9.80729669240309
H         5.91230702852294    6.21394585194466    7.69374888068912
H         7.18710874226737    5.91282774596046    8.88904978958101
H         5.69317509909004    7.73950841901945    9.63674320741154
H         5.60617969660744    6.35834972796380   10.72837036952465
H         3.60596789693162    7.04074746780218    8.52853778282138
H         3.33920214327902    7.18892148944864   10.26486087979060
H         2.32952156742211    5.09894518095066    9.35711747433184
H         3.58806814213783    4.74539422934173   10.54006301531691
H         3.78130467043913    3.30582709567529    8.51725214984444
H         3.93886313318536    4.76119733129798    7.51790506998780
H         8.82197962880449    4.28279838348623    8.40469347648182
H         7.87419931348056    2.41903432362714   10.61209084064140
H         7.65180786403521    4.17240350226976   10.59696731551618
H         9.64216821522071    3.56736095701400   11.88531964238253
H        10.06010165633792    4.54242610720606   10.47677943391901
H        10.32623478975874    1.51278452004434   10.71008326455829
H        11.64828881929870    2.67820581068606   10.70922554510503
H        11.33364058538172    1.62120269339360    8.46388603489885
H        11.07646925673106    3.36736460738053    8.40374730958017
H         9.27118001449398    2.10880075873161    7.17904028907040
H         8.90017786788338    1.26221752617266    8.68498658226620
H         4.97735870954074    1.81288985375476    7.36740400489893
H         7.56265342459970    0.22520342795466    7.54160009502686
H         6.95099109201874    0.93040761888582    6.05092440913748
H         6.21116705918354   -1.42798481290163    6.30660529784183
H         4.80935352808890   -0.35904483576322    6.38840963754971
H         6.30331928268880   -1.56602257021491    8.76005747108305
H         4.69987560670833   -2.03402095937990    8.19914211553451
H         4.58893370203583   -0.50299681253803   10.16413294312718
H         3.81061874393883    0.19279883901518    8.74361115930816
H         5.22306296128633    1.86590230773481    9.88799297440825
H         6.63085363943485    0.81060168834098    9.72031545318677

