80
CSD_code = JAFNEM | q = 0 | S = 0 | Stoichiometry = C41H35ClN2Pt | MND = 6
Pt        2.27754296392992   10.65597700251202    1.34139888770601
Cl        0.84556622945915   12.02739999304784    2.76069823977186
N         0.76139869691557    9.14479595399736    1.74333309190781
N         1.33530847806913   11.34476250842382   -0.46813365318498
C         3.06644183418635    9.83607893269110    2.99870311585228
C         4.31122035860680   10.08013172007264    3.56353949544648
H         5.00559601533817   10.76580558579582    3.10146226740712
C         4.66949658932279    9.43446782866095    4.73658291220206
C         5.88957065528620    9.50885092072169    5.52190421138787
C         7.04496542218579   10.24942731778095    5.33229085190063
H         7.14349728042693   10.90923121220214    4.48341444094775
C         8.06921475647895   10.12731878149478    6.25685567548332
H         8.97791863123009   10.69739343320175    6.12819554242362
C         7.94179637971073    9.28207514999785    7.34847549869573
H         8.75191157180223    9.20197124167118    8.05878139757746
C         6.78506826590968    8.53810351241322    7.54103171545980
H         6.69733469157929    7.88365655504974    8.39637982635158
C         5.76085401466186    8.65323976994444    6.62618562671844
C         4.41644340138139    7.95972724909263    6.61516879105468
C         3.79449615742800    8.53147164724027    5.36017190191169
C         2.56160025257679    8.27855389783552    4.81447533501703
H         1.89332070258311    7.57228421965839    5.28435379258316
C         2.18693770883900    8.93162750522322    3.63178213521774
C         0.88813279992784    8.70363035285348    3.00695955746461
C        -0.19312382515294    8.09001811686759    3.64691049201067
H        -0.10502979254660    7.77267723424104    4.67298625502811
C        -1.38650199982976    7.92935822714085    2.97427299377496
H        -2.23341972668547    7.47159530032127    3.46389292664664
C        -1.48586126937221    8.37275265073260    1.66237507322527
H        -2.39872465711077    8.26341424564950    1.09910796392697
C        -0.38201513966830    8.98140660510769    1.09611101039425
H        -0.42006116693853    9.34759632185477    0.07686521900374
C         3.59586396197552    8.32994932010605    7.85435041767569
H         4.09562272385740    7.98504759029150    8.75664460324817
H         2.61031885977758    7.87261685263543    7.80576142788321
H         3.47474249109163    9.40926125586074    7.91395632659413
C         4.57919821096661    6.44002378071285    6.51291339489133
H         5.16196282764671    6.18296264378152    5.63083215727722
H         3.60644878253016    5.95930480248782    6.43832316155835
H         5.09084439749603    6.05478060977526    7.39184124811858
C         3.26925329591010    9.53129563305115   -0.00834020455702
C         4.25780481209487    8.59687895251949    0.26102167406003
H         4.61662479086945    8.45105128534923    1.26993760582951
C         4.79110314590374    7.84769541566512   -0.77650791413432
C         5.81539253959142    6.81822408721280   -0.77217069363159
C         6.55629751669939    6.28407104126287    0.26952340236749
H         6.41528054773046    6.63366456521265    1.28141349607919
C         7.48119102413049    5.29353398228510   -0.01707277961397
H         8.06977210560478    4.86347256431386    0.78019787540743
C         7.66168578316977    4.84669146929700   -1.31724518631333
H         8.38833589057754    4.07330583368528   -1.51941707507334
C         6.92065143031338    5.38080161214024   -2.36327887885162
H         7.07120544119494    5.02422963572131   -3.37203719816915
C         5.99787774655511    6.36660557130837   -2.08769688868464
C         5.07935929083753    7.10000496777407   -3.04018149534226
C         4.34554749135102    8.02629236082903   -2.09535703101157
C         3.37067162318799    8.95001858703239   -2.37722055178143
H         3.03158887843843    9.08366678921715   -3.39359861990381
C         2.82297654194879    9.71188681679748   -1.33522451783799
C         1.78402063179652   10.71296883238712   -1.56708398059197
C         1.24981179372177   11.03839843980246   -2.81731447762910
H         1.60047725095739   10.54221631254823   -3.70740996580291
C         0.26818947199745   12.00591072505513   -2.91173545100125
H        -0.14881238322835   12.26419090287367   -3.87425797676183
C        -0.17317224184155   12.64098408173675   -1.75928391513022
H        -0.93615901145670   13.40155608247350   -1.79354706763629
C         0.39720640928877   12.27361530690671   -0.55299018679417
H         0.09859782892197   12.72851588425977    0.38437526683443
C         4.11368068027535    6.13289428840448   -3.73183348734936
H         3.54561532900165    5.57525216122891   -2.99018624837185
H         4.66359769240735    5.42770339682286   -4.35053474346233
H         3.41767606538448    6.67987583742996   -4.36377754417646
C         5.88103859483512    7.89145210063819   -4.07814852340766
H         5.21256895000352    8.46453052473506   -4.71655241459792
H         6.46286771864554    7.21633042374802   -4.70121141614647
H         6.56133467450295    8.57945459728776   -3.58098464781365
C         3.69262292267544   12.15166135976602    1.15303227851841
H         4.69236442671048   11.78401986484291    0.91474959104633
H         3.73121626164825   12.70829822960635    2.09117300964665
H         3.38773850176169   12.84413162760828    0.36342155318471

