53
CSD_code = JAFPOV | q = -1 | S = 0 | Stoichiometry = C15H25B10O2W(1-) | MND = 9
W         3.71096156712282    2.38239057370942    2.39333383477111
C         2.72763912634249    1.15116251034360    1.16618994809313
C         1.98995214678234    0.68061003866523    0.01878578728352
C         0.95180448973998    1.44955300542043   -0.54105296648432
C         0.26949504929548    0.97835279983349   -1.65024924219530
C         0.60301460830599   -0.23351217544425   -2.22887686321848
C         1.64779574672254   -0.97615385032185   -1.70338735980795
C         2.34569531744135   -0.53926051655809   -0.59186955464974
C         0.60533063097561    2.77413217831244    0.06571301253107
C         3.49784819013317   -1.32701879768086   -0.04775466403171
C         2.88840416412320    0.48158730330313    2.39514733259687
O         2.66804621335311   -0.58284614708148    2.93318396275813
C         2.04280939874262    3.20583282657319    3.04557587282770
O         1.01369528872687    3.56494391393742    3.46147629508433
C         4.57437811656700    4.37831797238314    3.04003053419098
C         4.88287693353170    2.13761134202263    4.65158863843294
C         3.81589336828808    5.67864783404004    2.76451430547404
C         4.04361334120115    1.37282624685880    5.67481850793846
B         5.55407699065393    3.87109576109142    1.91084735539684
B         4.31239953623370    3.64452008780068    4.39134407478401
B         5.53534268647131    1.25137984286418    3.35322927868696
B         6.01252152341866    2.14811815592621    1.90859328031872
B         7.17257503358042    3.40811839338572    2.44005790840529
B         6.22902926563989    4.49374023136945    3.62775491774815
B         7.24782410869895    1.81281149403575    3.13852845129852
B         6.54509723924184    1.79451745951311    4.73945502022562
B         5.96925895084405    3.37757856378529    5.16003027877440
B         7.38606655008202    3.27894722560349    4.18529388551049
H        -0.53456363406434    1.57022546249555   -2.06927602690168
H         0.05922580142666   -0.59317672871929   -3.09207810042864
H         1.92327995536191   -1.91521485199635   -2.16646222765966
H         1.52546271328497    3.33568522539989    0.27375718285738
H         0.08646899215609    2.63909208523046    1.01515673205752
H        -0.03267061327111    3.35393596165324   -0.59922441457906
H         4.36838217498135   -0.68057208759449    0.07942119106022
H         3.75496364617447   -2.15118132376215   -0.71116740878189
H         3.25076043416651   -1.72937483701846    0.93411339231931
H         3.32451554212294    5.65254992456999    1.78744667707768
H         4.49532091431502    6.53361669489607    2.75982533791435
H         3.04923044832442    5.87135498568112    3.51878585616265
H         3.06203449934566    1.12483613390182    5.26328825407223
H         3.88868061728971    1.96303196150464    6.58032658495794
H         4.52435636410453    0.43789075781277    5.96136270069632
H         3.53673245012657    4.10655864515533    5.16538523037611
H         5.31824525505344    0.08116844333752    3.38165494027597
H         6.17872932268615    1.63638326529564    0.83664543189106
H         5.50508142711953    4.52142612715112    0.90599019409226
H         6.49626176857140    5.63427216529610    3.80381612595373
H         5.93171735232500    3.75288017561649    6.28023478075731
H         6.87805510013432    1.03508299683086    5.58203786452340
H         8.13766973146071    1.06622404470516    2.90437016048685
H         8.04886887105885    3.82233429660029    1.75540827657128
H         8.41114528345044    3.63206620226051    4.66367943148777

