69
CSD_code = JAFQEN | q = 0 | S = 0 | Stoichiometry = C24H32Cl2N6O4Pt | MND = 4
Pt        8.61145807642225    3.59415143538517    1.80450563958228
Cl        9.53509708924379    2.23463916890959    3.40600384072030
O         8.36988668752468    9.01881887310724    1.69574907027693
O        10.43698434080732    4.89010202401608    1.48107102876063
N         9.12164966958161    8.03816781818859    1.95264438372650
N        10.16670032071796    6.10384474278753    1.85442917773394
N         7.89027999569084    4.99446897934026    0.40038736776168
C         8.10527620591415    6.32370567532964    0.50041369009643
C         7.32038238198542    7.22863023871206   -0.22704252232791
C         6.34129863743633    6.75882747193692   -1.07480637945275
C         6.15956273526893    5.38605682960660   -1.19136800693662
C         6.94861980554713    4.55052328723799   -0.42615887173223
C         9.12387459413466    6.82966443873141    1.39861762663959
C        10.08497869951073    8.09732539331680    3.08064860026386
C        10.93094769357877    6.80845024473139    2.88841523694157
C        10.85040431395647    9.41370622532657    2.99848995328552
C         9.21936220036518    8.09790862510725    4.34451614662128
C        12.32953701234140    7.04699570417713    2.30439383969685
C        11.05517223943460    5.91688031984390    4.12175010612018
H         7.48760361965769    8.28422778891320   -0.08357351687118
H         5.72906358609787    7.44775804986990   -1.63610223617842
H         5.41208595707918    4.97004923049612   -1.84688292970363
H         6.80463942768664    3.47894665877216   -0.44800657998914
H        11.42887567017218    9.49439058095183    2.08331874127719
H        10.12761165904784   10.22642747307150    3.00971089639323
H        11.51257570032833    9.51786072083821    3.85267388836876
H         8.57302153727667    8.97238675408206    4.31684710850556
H         9.83705192135179    8.14401882430113    5.23564579756913
H         8.58927742432345    7.21252804962650    4.38080692652101
H        12.28086785163665    7.60834041092486    1.37435715020264
H        12.95965535331809    7.57576921099376    3.01268931884158
H        12.77895229532222    6.08004208340195    2.08957693107599
H        11.59854432520064    6.42937288580885    4.90979932998770
H        11.60022075521658    5.01649107240517    3.84674648827316
H        10.07976825601100    5.61245501164771    4.48793834051328
Cl        7.68800119250061    4.95338293929970    3.40638002395641
N         9.33255475553287    2.19393063384469    0.40020040356135
C         9.11743725269979    0.86471092158103    0.50005668825556
C         9.90227840268376   -0.04022907979491   -0.22744088216512
C        10.88163043028693    0.42955962287588   -1.07490078989677
C        11.06361602090407    1.80232482457400   -1.19117519080944
C        10.27444737706492    2.63786686892438   -0.42609736965562
H        10.41852489595611    3.70943486028723   -0.44780399984693
H        11.81137393186787    2.21830862778345   -1.84638633631032
H        11.49388811077032   -0.25938621854617   -1.63615100315293
H         9.73486640614903   -1.09581956654410   -0.08417684307222
C         8.09887256182405    0.35877314140655    1.39829297540790
N         8.10118491457124   -0.84967257391178    1.95242452451690
O         8.85326156989675   -1.83015792339645    1.69580590780861
C         7.13797541135058   -0.90879689347224    3.08050521348411
C         6.29199214988154    0.38010023572833    2.88831702674252
N         7.05591881637313    1.08449113952513    1.85395979635415
O         6.78581193637862    2.29836391699504    1.48080854804295
C         4.89314610143888    0.14152648289783    2.30492341717303
H         4.94136279882290   -0.41988361153656    1.37490394029330
H         4.26334748738560   -0.38718712958323    3.01354921793002
H         4.44363227218198    1.10846472552237    2.09024433306666
C         6.16828269482038    1.27191630340565    4.12153058221022
H         5.62505350439567    0.75966656837172    4.90983106049761
H         5.62330777326942    2.17234666674543    3.84650862346416
H         7.14384586761834    1.57624356889794    4.48737546908437
C         6.37254034974344   -2.22518277512523    2.99848758296816
H         5.79368025499954   -2.30576591988628    2.08356236910435
H         7.09535812090764   -3.03788445458607    3.00931092154234
H         5.71073341762382   -2.32946432535514    3.85293595148716
C         8.00382995317463   -0.90936399750575    4.34421168684101
H         8.65000466652356   -1.78396234090426    4.31651642892645
H         7.38634323586147   -0.95518626917836    5.23548572394675
H         8.63410732507254   -0.02410127182035    4.38019841611685

