48
CSD_code = JAFQAL | q = 0 | S = 0 | Stoichiometry = C23H16O6P2W | MND = 6
W        -1.47676655329905   12.81378524930938   11.03732050864580
P        -0.56231743609003   14.35711412529691   12.71956079786135
P        -1.75780378081426   14.08383595247164   14.53398763467285
O        -4.37546063978301   14.01049808243760   11.16050818409930
O        -0.60041598174500   14.79520603920340    8.76089073260915
O        -2.65479585893399   10.85328435033894    8.90717363656962
O         1.26006041870520   11.27723827457791   10.94561626331599
O        -2.67871444029677   10.74872017726483   13.06486496526090
O        -3.18632172347815   14.22803329857042   14.22915371557645
C        -3.29458450157312   13.65659538747764   11.14273584063503
C        -0.89667965282248   14.07912985975121    9.59844598847192
C        -2.22347261317715   11.57381530746845    9.68241831952463
C         0.27621203126300   11.85718344816244   10.96205308245641
C        -2.17422163971394   11.53256149628617   12.40814139034812
C        -0.77034639600618   16.15753187716802   12.70076333160969
C        -1.94951886917446   16.69087847751782   12.19196737864091
H        -2.68265736521643   16.03272416110941   11.74666405083878
C        -2.18014840215296   18.05264333488939   12.26183750158558
H        -3.10086422482465   18.46188908159076   11.87377055403336
C        -1.23244870593930   18.88867550615116   12.82924099145547
H        -1.41368505200138   19.95163972749240   12.88444055875495
C        -0.04804766502177   18.36342908647094   13.31998174244890
H         0.69517255373924   19.01495041603094   13.75527091950978
C         0.18517198727780   17.00261078464007   13.25909605616707
H         1.11012499051173   16.59322258880001   13.64421706361268
C        -1.12787279008440   15.32276519477301   15.70563860766942
C        -1.90813180238867   16.44654727037570   15.93181181177447
H        -2.88140382466352   16.50505110581172   15.46632001904701
C        -1.43199818357166   17.46041492152428   16.74296886861492
H        -2.03459058066709   18.33861869893673   16.92060931317231
C        -0.17918889327232   17.34735517211713   17.32357996560507
H         0.19539317701847   18.13953427374864   17.95483171333174
C         0.59660142243761   16.21963683996638   17.10158873463115
H         1.57018875478596   16.13466772475384   17.56179275451905
C         0.12658049761120   15.20542724309129   16.28810992413270
H         0.72171568756746   14.31988287874759   16.10916530642163
C        -1.29583446896788   12.44905549534485   15.19187617187000
C        -2.17783975140387   11.88042152386148   16.10004052342984
H        -3.06832460842772   12.42881711058439   16.37402571026455
C        -1.91881598231810   10.62359672927336   16.61518967541174
H        -2.60533393737804   10.17551840086512   17.31785914755110
C        -0.78287327173767    9.93604084845159   16.21823896720089
H        -0.58501583443396    8.95002803321680   16.61141822760265
C         0.09497223693268   10.50294253357808   15.30836870130851
H         0.97337610221029    9.96010427518563   14.99188126825040
C        -0.15896849083810   11.76195571438234   14.79366614331993
H         0.51990885042656   12.19895622401037   14.06999421056186
H         0.71008521165720   14.35806569686926   13.29650302557947

