24
CSD_code = JAFROX | q = 0 | S = 0 | Stoichiometry = C11H8O4W | MND = 8
W         1.85204708047781    0.92645850054563    2.49907850814923
O        -0.76649844335919    1.30684764366340    0.84053312403850
O         0.24128852661836    1.45633280206657    5.13033211523857
O         2.26511722613857    4.00232557144042    2.15298569553442
O         3.44284263416847    0.43973922659813   -0.15276759586317
C         1.55541910058915   -1.13832283923307    3.53528891463196
C         2.26034081989926   -1.36302254024799    2.37159276972415
C         3.74054763136852   -1.32356542239470    2.75671746701335
C         3.96094306822244    0.14879856996071    3.10958345916984
C         3.25553412594685    0.37390980159947    4.27317644413382
C         2.60083532720789   -0.96000576119605    4.63808770129304
C         3.68233836160159   -1.94408889266606    4.16240114609070
C         0.19168758269177    1.15773177169654    1.44932733889162
C         0.81568264948973    1.28139293070421    4.16172545450268
C         2.12255348320257    2.87404276040950    2.28566493136419
C         2.85097129401589    0.63402303460574    0.80181650755017
H         0.53750874062060   -1.45373952873019    3.72969255565392
H         1.88940140032924   -1.88456542751187    1.49769464483922
H         4.43651371694488   -1.75709377227295    2.04086554631436
H         4.81756087196510    0.71755241229499    2.76891748435452
H         3.46554026327955    1.14847389216321    4.99997120716572
H         2.24317151311608   -1.05732561039452    5.66150430212443
H         4.61947141855360   -1.85435889097776    4.71269889654289
H         3.35048160691133   -2.98284023212349    4.16211138154191

