129
CSD_code = JAFRIS | q = 0 | S = 0 | Stoichiometry = C50H73BNiS4 | MND = 4
Ni       15.09695272811546   11.51689645934982    4.43635351186302
S        13.30200040671493    9.88151206491648    4.41880402938332
S        16.46376932674449   10.23876897041599    5.81297254008653
S        12.86768236780768    9.11368182391320    9.21139854999902
S        16.28991829178560   11.93113503828827    2.50783892978648
B        13.96058432826385   10.69529147187951    7.08996979319955
C        12.74861712318085   10.14395324662179    6.12753119852807
H        11.90421104742375   10.82965742551754    6.10264571222116
H        12.39346683486088    9.17819552685478    6.48799500224377
C        11.75028653203013    9.95932166409142    3.39123564217792
C        12.15981483119146    9.55943905031231    1.97690473437458
H        12.90333447901732   10.25740962165645    1.58751608363775
H        12.61903991603394    8.56916334002529    1.99916293665089
C        10.92539476623572    9.55073130198538    1.07480395327659
H        11.22376130064093    9.27275997025501    0.05779021525235
C        10.29554390776671   10.94292254658935    1.06100599473825
H        11.00913536938563   11.67119892876506    0.66767359928837
H         9.41951855587294   10.94830066020589    0.40877535797636
C        10.75253595119594    8.94058596359012    3.93054072637838
H        11.21384278475169    7.95110289344707    3.95220802166864
H        10.46166256851185    9.19841102859763    4.95002664403715
C        11.12098475593041   11.34455867941629    3.38663399644968
H        10.81932588736062   11.62536025765344    4.39840910075584
H        11.84023825447574   12.08439717211528    3.02855718029425
C         9.88637914531951   11.32864869502304    2.48177385868975
H         9.43453826505518   12.32722228390322    2.47456109491847
C         8.87709883016846   10.31420623369127    3.01756355954377
H         8.56953221211941   10.59255094040590    4.02815527928483
H         7.98544130922109   10.30862234802001    2.38669831016550
C         9.51467162306970    8.92563220187664    3.03066570128568
H         8.79679723565650    8.19643586742188    3.42185551766936
C         9.91639055245781    8.53582764148441    1.60909698830272
H        10.35828232505337    7.53706278505183    1.60749430258154
H         9.03394423295195    8.51319431175129    0.96579452930556
C        15.22775534777514    9.64260282667158    7.00573261177225
H        14.89796756543438    8.66089568729781    6.67338913624723
H        15.75840520739725    9.51621344004142    7.95033670026874
C        17.14195173382912    8.74356180382543    4.94163751418777
C        16.12353645437538    8.17662347215456    3.96536392664412
H        15.23240312654441    7.84399605345091    4.50098211260981
H        15.81744676362369    8.95954248232841    3.26061661357894
C        18.37052983245012    9.22560672277420    4.17480355124537
H        18.07166765892592    9.99664819316457    3.46027360854700
H        19.09296952241294    9.66131617343834    4.86978823925749
C        17.55793710773520    7.68428886952423    5.95277698164409
H        16.69374349133791    7.34103077550992    6.52416031312000
H        18.28137949765213    8.10549097152934    6.65527436228563
C        18.17811407420477    6.50272890534739    5.20253424876323
H        18.47004288738552    5.73344292792687    5.92629581652261
C        17.15638224831624    5.92305222798868    4.22463746429622
H        17.58907801163255    5.06736789440404    3.70108253322273
H        16.27743551374909    5.57186685783373    4.77002913540665
C        16.74794695334106    6.99845822398861    3.21796360260825
H        16.01316815023716    6.58621666288665    2.51767350863120
C        17.97821099372025    7.47401008009070    2.44680465444601
H        18.42002975134327    6.63954143525691    1.89754120854477
H        17.68900302659640    8.23905378131475    1.72234018582073
C        18.99793536366156    8.04860510741372    3.42868509850877
H        19.88047837061278    8.39779855919153    2.88010474595438
C        19.41091128424805    6.97343859855562    4.43241569477427
H        20.15226194813857    7.37684519341186    5.12632455809848
H        19.86696517288684    6.13033817446600    3.90861812231792
C        13.38635044976936   10.76492948592071    8.62604087548495
H        12.51841490701476   11.42139643728934    8.70882558388922
H        14.15088027695661   11.11632558363069    9.31695310614105
C        12.78213971382974    9.28697397460360   11.05557009545920
C        12.14332972840045    7.99935169650089   11.56968816595363
H        11.15104737473860    7.88492303842194   11.12849936923930
H        12.74593327193944    7.14474908105325   11.25502432315512
C        11.92306992561096   10.47723100150805   11.46055005033896
H        12.36462864418799   11.40498015236672   11.08984835445218
H        10.92785789659437   10.37691578569020   11.02037429242726
C        14.18069673021848    9.42599191695933   11.64457865073732
H        14.65920992802598   10.33519728204322   11.27218916010848
H        14.79164582705276    8.57469043864179   11.33522587265736
C        14.08264694409659    9.48433637526260   13.16967440564557
H        15.08881324127631    9.59169874382797   13.59244283598668
C        13.22578119481567   10.68142996092219   13.58010334937336
H        13.68359049209176   11.60705481441742   13.22215228879558
H        13.16377743103855   10.73841998405420   14.66972612309699
C        11.82560809257686   10.53072926431419   12.98626484606901
H        11.21007271718203   11.39037333076591   13.27722468997411
C        11.18573586892985    9.24471519592074   13.50672821656958
H        10.17939292732450    9.13749805732248   13.09520992567770
H        11.10070771170287    9.28551985509317   14.59553865062903
C        12.04526341225491    8.05086450868247   13.09400541313789
H        11.58625804872438    7.12447673987848   13.45820225348346
C        13.44443949214794    8.19736986707004   13.69011973383340
H        13.38439225995684    8.22636373832516   14.78096137823828
H        14.05882439635905    7.33847707734606   13.41022642768180
C        14.45398101380209   12.19673406274237    6.67587093730345
C        13.78924360557311   13.02660780169604    5.74449657995200
H        12.87150012761450   12.68426747319723    5.27242947981571
C        14.09453767174750   14.39021967672982    5.63642544075933
H        13.52019034519360   15.01356114728486    4.96196498434062
C        15.08397097841290   14.95174524896280    6.41604600634823
H        15.29495473049251   16.01076350753273    6.35567806008564
C        15.78969376721765   14.14508726487371    7.30168824877223
H        16.56443309539685   14.57925479322878    7.91890497298143
C        15.48819249615541   12.80344412477717    7.41194599280689
H        16.03447175195262   12.20232317007503    8.12477273799816
C        14.67223633734587   12.47708633580126    2.88158035758343
H        13.97900939954435   12.02031269591240    2.17814769447627
H        14.55689652886999   13.55641971369371    2.92595025393695
C        17.48005863490220   13.28355476215896    2.98479701744183
C        17.65108661859671   13.29625217760602    4.49422748188731
H        18.00190620732107   12.32035246096584    4.83883147122462
H        16.68947764789530   13.50434240560651    4.97834295967455
C        18.80419770005884   12.92510872386586    2.31587810817139
H        19.13363574753133   11.93794861266011    2.64642443331827
H        18.67901027357608   12.89209286469218    1.23108107387719
C        17.00340983678947   14.63945696539581    2.48689181682556
H        16.05994467652017   14.91463105519310    2.96204000913581
H        16.85283240665670   14.61193263336988    1.40448841216319
C        18.05266450694436   15.69364505005518    2.85213884937441
H        17.71176404185405   16.67107490346976    2.49323397173660
C        18.21437978410861   15.73142819764450    4.37108865087212
H        17.26287647322553   15.98763834860647    4.84033033989817
H        18.94333401399784   16.49608054115739    4.64723108091000
C        18.68092711633995   14.36386040226869    4.86580637199453
H        18.79343313401523   14.38441421639495    5.95401549710405
C        20.01809545067249   14.01218284831550    4.21331397933401
H        20.36226677123283   13.03976601419786    4.57175501717643
H        20.77164095735480   14.75482361022518    4.48331255343169
C        19.84937973763425   13.97726825816696    2.69429816719167
H        20.80378293575897   13.71742691440482    2.22408606747504
C        19.38805525149735   15.34600063143752    2.19756501595316
H        19.27921023929617   15.33164831154861    1.11057702677388
H        20.13205397536851   16.10431816822279    2.44919559733041

