69
CSD_code = JAFSER | q = 0 | S = 0 | Stoichiometry = C14H34B20Ru | MND = 9
Ru        8.93713365780187    7.07845029863060   10.13257880262264
C        11.25445044600331    5.25786006574710    9.23448196197386
C        10.88241187640510    6.80498303149909    9.37521835212978
B        12.02223981699334    6.18483102203202   10.49650095641907
H        11.64131751231994    6.07600655728237   11.60162354551863
B        12.90114881633799    4.95239792230180    9.60951184941186
H        13.17615975971605    3.94349091239780   10.14506409967811
B        12.33102622474962    4.92726224451112    7.94199510204799
H        12.22193673709106    3.90087495740137    7.38101876022124
B        11.06977995328227    6.13559154709092    7.76763103098894
H        10.10506543706748    5.95509173764811    7.12096349830226
B        12.29412767671858    7.73812222449169    9.77311379734836
H        12.16407877369832    8.70432685531131   10.43302312008057
B        13.62853831726814    6.55693985431524    9.92191980094386
H        14.51157605490226    6.70810605892410   10.68458371371801
B        13.82837006842292    5.78324800307343    8.33772185754571
H        14.87602180588853    5.39059182478773    7.97310230464507
B        12.66889878624218    6.52361069461361    7.20452436727248
H        12.87502883742912    6.65116472777225    6.05314802122137
B        11.68432626644008    7.71130542069925    8.13792878637543
H        11.14158848446761    8.65842197352229    7.69218717349601
B        13.44043186804834    7.52992926297957    8.44029794892003
H        14.20286122659903    8.38097393332168    8.15733788348209
C        10.12221639815512    4.36089605986172    9.62225620124136
C         9.08018517431540    5.03126831617388   10.67122140442921
B         8.51158572791190    4.84836090978344    9.11678551058947
H         8.39563893234848    5.97786093027162    8.59982051509836
B         9.27931534697097    3.40009861399355    8.48210626887319
H         9.67123180328306    3.35073622276550    7.37773343457645
B        10.24567580933291    2.69024428826103    9.79960237096279
H        11.27620970579363    2.18393821818870    9.56084404874605
B        10.09720615503638    3.75941740625826   11.21609793650954
H        10.99566953695648    3.98512782089308   11.92851718136286
B         7.43029845796730    4.41725626176126   10.42129171574313
H         6.53644045195358    5.15098037522272   10.64727722573476
B         7.55747741735753    3.38892419111682    8.98840752912401
H         6.68385179278795    3.28735357486546    8.20833684082121
B         8.63733899665055    2.04699967039062    9.43827541735203
H         8.50327189201990    0.97389742651292    8.97762611026943
B         9.14814963561174    2.28354910364630   11.14347069028570
H         9.37494170482416    1.39221289977849   11.87522900628067
B         8.43108974222000    3.83136909370096   11.71389719710851
H         8.18184005482923    4.10102636487524   12.83150304372733
B         7.49851035550116    2.69352982764787   10.65124992293195
H         6.56762801744668    2.09495194119557   11.04811222145614
C         7.97068835996835    9.07564856605619    9.52467687507283
C         9.15733832194348    9.32794378542703   10.22560142390049
H         9.89428079055580   10.00654171956455    9.80918821772444
C         9.39338210797098    8.75134878965989   11.50297572624657
H        10.29150926272284    9.01277236426814   12.05296772080948
C         8.40503468135642    7.94604165026915   12.11594550687870
C         7.16107748915919    7.77857318755884   11.45138864961101
H         6.35183427887558    7.26844823128831   11.95973445772092
C         6.97754123498216    8.27710638019357   10.16173701497026
H         6.01676016235151    8.13831657307920    9.67725796300945
C         8.59238641287578    7.44085166366277   13.51647102337154
H         8.06489946934997    6.50100703316016   13.66543870843461
H         8.19711047221884    8.16937347071962   14.22675417973497
H         9.64740630800931    7.28939768735600   13.73565500025924
C         7.70273253487664    9.74135069842918    8.19451657861312
H         8.59669381169402   10.31213495653453    7.91722508299767
C         7.44124852127269    8.71412344765017    7.08996972951848
H         6.56644412971226    8.10702436327642    7.31534255517395
H         8.30446662020128    8.06034783046062    6.97128800961116
H         7.26718763381358    9.22093183221864    6.14372825709404
C         6.53109612526060   10.72060041410707    8.31850579738838
H         6.40267271312766   11.26751356933252    7.38752252021367
H         6.71499580531322   11.43739392641119    9.11662149833823
H         5.60332123924735   10.19522721175745    8.53474897572791

