71
CSD_code = JAFSIV | q = 0 | S = 0 | Stoichiometry = C15H34B20ORu | MND = 9
Ru        4.64946750298324    2.24452294531985    1.32785957401724
C         5.11644654581145    0.81991295485160   -1.44341125284337
C         5.88728141596326    1.26549137487142   -0.09740441070422
B         5.55882181356089   -0.40524260299694   -0.28775830985156
H         4.75477497359557   -0.89875815051668    0.40730946656913
B         5.67812496138282   -0.70867276271359   -2.00742504339525
H         4.91604499643307   -1.43583153905999   -2.52357283964969
B         6.17625009178737    0.77624166048829   -2.80145331474807
H         5.74849756592231    1.05325673591075   -3.85710202095571
B         6.36392372080900    2.01512447356148   -1.58262258956914
H         6.09338117120354    3.13866284447582   -1.74009924992904
B         7.10130514916333    0.07493533132271    0.34224646956176
H         7.33465586670703   -0.11070414604129    1.48221241088576
B         6.98794585424652   -1.20871614412283   -0.89185352379490
H         7.17939780426130   -2.33941992398849   -0.62638105855754
B         7.38414879315373   -0.47834637569539   -2.45606605234578
H         7.88416156278872   -1.10639446141844   -3.31558509790646
B         7.79763958238692    1.22503140700612   -2.17758898616280
H         8.57142082229380    1.82141131864265   -2.83113226830409
B         7.57011343315767    1.55761622577458   -0.42487010372425
H         8.10848645376392    2.40378287436438    0.19213006902653
B         8.27493721097705    0.01294316925196   -0.98148667624920
H         9.40208829947376   -0.25718712741936   -0.77957265121513
C         3.68135435423769    1.26489107147776   -1.50937348889179
C         3.18552850693947    2.06672237449262   -0.20388099918847
B         3.33743422000426    2.95543005083505   -1.68649773373018
H         4.20634405011707    3.72780340186235   -1.77580364398313
B         2.89856532132270    1.82935699340938   -2.94302650566082
H         3.49473145415667    1.81920932917232   -3.95231601054126
B         2.40558970805579    0.32403754346977   -2.19182430695039
H         2.66540526252722   -0.70525388926213   -2.69069049038281
B         2.53396019064613    0.50049530982246   -0.45567985584715
H         2.86320568570126   -0.37161937603680    0.25015717355161
B         1.16881519633618    1.47839670200450   -2.73973692258380
H         0.47430226244501    1.24316641850699   -3.65929162950765
B         1.76375910254254    3.11626800490224   -2.40955363847355
H         1.51736090854319    4.04586046315167   -3.08520107987017
B         1.99698641748058    3.26076779685681   -0.63022144355859
H         1.98844276596863    4.25738508416712   -0.00125805199388
B         1.48675809804863    1.76910063546170    0.09403851376559
H         1.09364125389105    1.75510220453235    1.20497539280826
B         0.95546531161811    0.64911980417497   -1.18932081818874
H         0.13918972449331   -0.17562117940646   -0.99019312362994
B         0.59278152227067    2.38498494894413   -1.30507513851748
H        -0.50342591949826    2.79690071481546   -1.19126808984644
O         5.40834761886704    4.97188378987034    0.46737754105763
C         5.11128045502148    3.87821187343991    0.67799440345731
C         5.44199731868435    2.94398450478645    3.42226447855343
C         5.86919191382904    1.62192097566323    3.23226442007002
H         6.91821756072596    1.37529900084079    3.33039959333603
C         4.93172449238524    0.57314031468637    3.09184685624673
H         5.28860882318868   -0.45113538549073    3.07967626009493
C         3.56052127739544    0.82448788779160    3.08687194313350
C         3.13176472667845    2.17599678335595    3.17611843745405
H         2.07138367974591    2.38962943636453    3.23589485189343
C         4.05079709456519    3.20506801964225    3.38230219335616
H         3.69316838691006    4.20944497586116    3.58525911772182
C         2.56103819602519   -0.29167969993917    3.14835833553024
H         1.69185419099609   -0.08231470724422    2.52763084025302
H         2.21900598620986   -0.40660782249780    4.17887752547411
H         3.00196228741906   -1.23417587766517    2.83029413536391
C         6.39689035414838    4.04483397553537    3.82234851487263
H         5.92383247682912    5.00670624867225    3.59167111352451
C         7.73307682209231    3.98469397042365    3.08327386956120
H         7.57326949602526    3.93043154904723    2.00781352289119
H         8.32208137447182    3.12445310361756    3.39200320190267
H         8.30980418019180    4.88031280562102    3.29972064374883
C         6.61304856940516    3.96594129080892    5.33920195032129
H         7.07758854234061    3.01936563570575    5.60897663076394
H         5.66703952977100    4.05004528966826    5.87099383760716
H         7.26379365640307    4.77359757220875    5.66393513287919

