70
CSD_code = JAFTUF | q = 0 | S = 0 | Stoichiometry = C33H31ClMoO2P2 | MND = 8
Mo       -1.02699975776635    9.11329168765002    3.71895343763296
Cl        0.84630404787187    7.33823809572959    3.53056978995979
P        -1.94772449540449    7.81176537734312    1.90675463509630
P        -1.69121699063341    7.13756554356491    4.85064647496301
O        -0.81409716683643   10.11885373315816    6.61692553278090
O        -3.52458795797390   10.81638665663746    4.23531095700519
C        -0.69293686201623   10.76568039788622    2.06445764122921
C         0.47918875413638   10.42805457195732    2.74004639515331
C         0.60079136343059   10.77957024901730    4.11861451890316
C         1.81652008789818   10.42454579713415    4.83594146643464
C         2.20540737855746   11.00478565366696    5.96659782909276
C        -0.80633933779168    9.72977281762916    5.53267438093310
C        -2.59198550349682   10.18919301619556    3.98630873850030
C        -1.75750336498585    6.01872637024442    2.27712938140417
C        -2.11725447227640    5.71618989652735    3.72922147702152
C        -1.22981542384351    7.87072436005048    0.23561477385329
C        -1.99211135151393    8.04690128254022   -0.91427125814825
C        -1.37262853132941    8.09551152655183   -2.15113138354530
C         0.00304050862770    7.97276756298148   -2.25003591928201
C         0.76603482721293    7.80003991787544   -1.10586582958858
C         0.15508719876514    7.75221139598659    0.13267309473567
C        -3.71618660630501    8.05281038676031    1.56338308808360
C        -4.11918597872508    9.37368693246301    1.37659490525520
C        -5.44616163916352    9.67796973545094    1.14425593648772
C        -6.39061605798033    8.66416356064627    1.10130337757926
C        -5.99835655972145    7.34870958954908    1.27875205836008
C        -4.66757207445325    7.03989900086057    1.50587693176262
C        -0.64767818320510    6.38683689269888    6.13015794771686
C         0.49956383593679    7.00556061802766    6.60810691136188
C         1.24221685088864    6.40554002140054    7.61027866778094
C         0.84226691981748    5.19286333720648    8.14486868531482
C        -0.31373263782740    4.58132272144854    7.68542896911056
C        -1.05992758600020    5.17631055990719    6.68643235995720
C        -3.23004740486045    7.38643820902106    5.79385341894247
C        -4.41151943377843    7.59675962163216    5.08786056833443
C        -5.57665568737209    7.92761462399270    5.75094298651666
C        -5.57055291699525    8.07189002305059    7.12933557853548
C        -4.39345764585316    7.89407648351068    7.83584765149958
C        -3.22525424303596    7.55866659657039    7.17419318165018
H        -0.74879375622322   10.53149887211771    1.00446461052752
H        -1.21495776094209   11.67796706818161    2.33837660184172
H         1.29469668925221    9.90663392458027    2.24053886515271
H         0.14453060240365   11.72316246116289    4.42755113761627
H         2.39838742137791    9.61254407045588    4.41234948863789
H         3.09850356533286   10.70025579074528    6.48425980659379
H         1.63700879192697   11.80289015760171    6.41646625594137
H        -0.69468334525342    5.81330971701699    2.10686783047147
H        -2.33267485350006    5.40949804011262    1.57062579757440
H        -3.19195361604436    5.52980260686688    3.83678353534689
H        -1.57195737043603    4.83074147735419    4.07275822705257
H        -3.06610346345651    8.14708941850851   -0.84516106978946
H        -1.96915723107567    8.23074648506046   -3.04165440888348
H         0.48045030438263    8.01369749106896   -3.21794514331898
H         1.83947098710653    7.70528584918101   -1.17973950957364
H         0.74836621304889    7.62010828941449    1.02904308603270
H        -3.37546289686228   10.15839510739712    1.41694219219314
H        -5.74708088144902   10.70529532939046    1.00386760297828
H        -7.43059614278758    8.89909514409160    0.93012590447413
H        -6.73155806602502    6.55579285252148    1.24347209399605
H        -4.38499336853328    6.00583415087231    1.64243069706021
H         0.82264318299573    7.94874358021580    6.19006534788041
H         2.13752490655922    6.88847625826468    7.97281226960955
H         1.42679178647223    4.72499678435968    8.92332473620059
H        -0.63533573742629    3.64109584100435    8.10966063555592
H        -1.97711369382346    4.71267968960158    6.34485748468858
H        -4.41065485734095    7.51607782147793    4.00784872330361
H        -6.48684196317370    8.08537937700915    5.19075213182599
H        -6.47936068363583    8.33606184596408    7.64942711746904
H        -4.38140385638193    8.02427134990844    8.90806012324666
H        -2.30670680847916    7.43437832396138    7.73105846991049

