97
CSD_code = JAFTAO | q = 0 | S = 0 | Stoichiometry = C28H44B20N3PRu | MND = 6
C         6.13092495581387    6.96896051999270    6.78886172513904
N         2.99515064131618    6.96806725179328    4.72461124534437
P         2.95056443989020    9.51320390161221    3.09658247548387
Ru        3.86648052418422    8.57518434242089    5.07946570455344
C         4.71725913119076    7.76997247986172    6.89289341403055
N         2.17088356297391    9.20055423147357    6.16332877015449
B         4.73664689400440    6.06536365997527    7.20626553317512
H         4.23294208219269    5.32613812095339    6.44114738296034
N         4.67903564582288   10.20718102605856    5.49009718767476
B         6.25986316239833    5.70890149380082    7.98908428309462
H         6.82908943960273    4.71554135734622    7.72429244184507
B         7.13132341513095    7.20355033264672    8.19005629018871
H         8.29670275105577    7.24268040253689    8.05008280441079
B         6.15294157567726    8.49971818995771    7.54842460419015
H         6.63064933577773    9.40949144969852    6.99131689903822
B         3.78769567103320    7.11172695814592    8.21280603008023
H         2.61023346836595    7.08705136676280    8.09733791558753
B         4.75593505781500    5.79801492383894    8.94032668461983
H         4.24564830960171    4.83442284049608    9.39144284245820
B         6.24942455682622    6.51236457002893    9.57041875029558
H         6.81574886396992    6.05225809566092   10.49603649885626
B         6.18366876001944    8.25737808806517    9.28021571473465
H         6.69563312918694    9.05700456344197    9.97991506012618
B         4.65388545586223    8.60781861002765    8.42039793699221
H         4.08457474754838    9.64619348227145    8.44902041641376
C         5.07695188995797   11.22937210792209    5.86343995484478
B         4.69799028097524    7.39183646116024    9.71557183624452
H         4.14510747382394    7.56677956294999   10.74422825177536
C         5.63139216408484   12.48458229794946    6.29293533841121
H         6.01253813912539   13.03617029594964    5.43255862959524
H         6.44840180016177   12.29850039832927    6.99095123804450
H         4.87017356520622   13.08454435736109    6.79250022070481
C         2.38705388439336    6.00531023531749    4.50827807038510
C         1.69765586860615    4.76909507891484    4.24987019739289
H         1.92613590846103    4.42556573456412    3.23984397053670
H         0.62053292170034    4.91139716890320    4.34112510073585
H         2.01428135144727    4.01097898992097    4.96838831917220
C         1.56666374487905    9.42502957503179    7.11585346960048
C         0.81063555994102    9.70755424769343    8.30065716700465
H         0.60205730105885   10.77564581442253    8.36115622149464
H         1.39044821628763    9.39770752643406    9.17072346810557
H        -0.12994905285629    9.15772106002880    8.27927824369983
C         2.31860242828461    8.29505915767600    1.89924490396151
C         1.17980647756948    7.55920971909362    2.22359672653443
H         0.64019543816707    7.79084392551189    3.13369190067637
C         0.73497124487306    6.55238642130972    1.38662114009426
H        -0.15983724659655    5.99836350847952    1.63474733946744
C         1.43626311167912    6.25205337255149    0.22981185156625
H         1.08890653417460    5.46505394669544   -0.42350909903710
C         2.58759328004895    6.95706425938140   -0.08146472531673
H         3.14530212762958    6.71280324326189   -0.97317106986850
C         3.03248850602199    7.96861015842762    0.75059972659742
H         3.93976580203550    8.50514022058729    0.51584924875609
C         3.80823550745738   10.70411661544992    1.99307575477320
C         3.19195824044780   11.16124396339373    0.83139054212365
H         2.22298061145278   10.77440857572203    0.54878358080098
C         3.81644045182819   12.10283414757246    0.03629417703227
H         3.33525322093245   12.44841237557715   -0.86718556960942
C         5.05694913686271   12.60569797963765    0.39735118372419
H         5.54292675756989   13.34142301484652   -0.22638040484708
C         5.66919398617993   12.16263409416013    1.55657463263308
H         6.63792658425983   12.54845251120805    1.83771199879934
C         5.04697333236897   11.21637111845019    2.35392840834249
H         5.52699415832527   10.85341216927105    3.25012951916508
C         1.48742409035102   10.60366125795190    3.35480862130004
C         0.30583996670337   10.55591906117610    2.62481960350365
H         0.17418239164355    9.81932785418037    1.84535644736566
C        -0.71562705527527   11.45213983999155    2.89003107743947
H        -1.63140140929728   11.40245137259031    2.31839266371319
C        -0.56847042847449   12.41174274389933    3.87638138505850
H        -1.36895311431334   13.10784866496915    4.07977406274325
C         0.61347455458060   12.47860137016690    4.59643262754986
H         0.73858217983568   13.23311045130125    5.36028293607603
C         1.63139677561301   11.58195050537980    4.33540614914630
H         2.55607545412544   11.63138616379293    4.89589943695723
C         6.67193113959118    6.89043344764697    5.38794306110496
C         5.87352601883252    6.01153990581268    4.32810478089862
H         5.02867609281620    5.44829886719424    4.68822280280197
B         5.66475435517567    7.73295890190782    4.22757661326113
B         7.32986703115342    8.24839989582048    4.55386085764337
H         7.51880036104883    9.26611528649840    5.10861832652436
B         8.34177489048754    6.86691234993712    4.97757358335139
H         9.14040120506687    6.96386952966496    5.83243660610602
B         7.39206149830174    5.41136553518948    4.82468347355552
H         7.40372618665924    4.49574230856754    5.55539836102574
B         5.82244271220484    6.66143525809148    2.78606800442936
H         4.84966810555641    6.46923486922456    2.14426922598184
B         6.80328638977929    8.10544683755336    2.87824052999030
H         6.62890513027747    9.03986647630996    2.18092421142019
B         8.45503940567721    7.59907929927548    3.35445604766726
H         9.40379809442611    8.21708801734023    3.02812392715754
B         8.48881748573839    5.83339412445588    3.52581172517630
H         9.45012514064638    5.18962487064462    3.30704671493645
B         6.85417379875226    5.26254151006504    3.15217222304707
H         6.52192123445806    4.19731038281547    2.77294340755639
B         7.51558292003654    6.60060981917709    2.22696270603014
H         7.79143111173014    6.49556555144124    1.08629772396275

