34
CSD_code = JAFWIX | q = 0 | S = 0 | Stoichiometry = C7H18Cl3O3P2Rh | MND = 6
Rh        2.19558612874918   10.72158209883741    2.40250527636458
Cl        3.18273583767896   12.37634602404655    3.77395504126746
Cl        2.42082417860911    9.00493061581687    3.91724191580980
Cl       -0.04829713827930   11.25510024812421    2.96736548896392
P         0.99601788713927    9.03719016837198    1.38072028140257
P         4.46781465548989   10.43083745623992    2.15546109299476
O         1.69172700003447   13.04305994303739    0.59528403301084
O         6.39506810711322    8.93772963712866    0.95203822142281
H         6.63890718559814    9.62070157537529    0.31749706772023
O        -1.17209787638805    7.49324615224814    1.70480270284513
H        -1.88893448305355    8.12924389984849    1.60444764626452
C         1.93094063380105   12.11852546223684    1.21301180860053
C         5.30009247516776   11.80253877689040    1.27390652759756
H         4.96170244768771   11.85052507061666    0.23854406509025
H         6.38035227952773   11.66390801844504    1.31532576849698
H         5.04270672889332   12.73219939357122    1.77919381059002
C         5.51222354959535   10.20530664491532    3.62352726843416
H         5.03871297679400    9.49254000940367    4.29673410714635
H         5.62911511191487   11.16082381359850    4.13051482254714
H         6.47493192689150    9.81923707146517    3.28566345514197
C         5.00774743071157    8.95401395217797    1.14554500669368
H         4.76058106307044    8.05871150784386    1.72281141357692
H         4.46089329369432    8.92979091561066    0.19394495122627
C         1.83007146302182    7.62842489684895    0.56670028406676
H         2.53309406054643    7.17073179377821    1.25925889030371
H         2.35027295300259    7.95462486937239   -0.33106579282283
H         1.05672836926680    6.90608473917665    0.30324445637984
C        -0.08558681060254    9.62875610417385    0.02752750772368
H        -0.76326003580471   10.39104168289167    0.40923116022392
H        -0.64487518818907    8.79038896608633   -0.38596394214656
H         0.54040317661072   10.06546936309191   -0.75031259591103
C        -0.16316589916875    8.07558069326076    2.48336928413605
H         0.42323488237806    7.26550015424002    2.92793746381437
H        -0.55376837150441    8.71290828123049    3.28073151102290

