32
CSD_code = JAFWET | q = 0 | S = 0 | Stoichiometry = C7H18ClO3P2Rh | MND = 4
Rh        0.49831112890473    2.07568141588534    2.49132887764847
P        -0.39151533990675    1.32067866359883    4.44264407968128
P         1.63123278351154    2.47114449773202    0.55952966918978
Cl        1.80866318232749    0.28864319431617    2.64447466724517
O         4.13738403191764    2.55130369370914   -0.51684915279126
H         4.10217460045531    1.67635971346151   -0.91799570885597
O         0.31657576805296    0.81221089334854    7.03588433725370
H        -0.13518616086669    1.57935914162233    7.40342853221220
O        -1.27315967438967    4.46005782340642    2.27854672245294
C         3.48835127730777    2.49634203678907    0.72867336979621
H         3.75830673998860    3.40993410671976    1.26831222388117
H         3.80643866552666    1.63237303707039    1.32377475439193
C         1.39703532497309    1.16019054624262   -0.70322968004088
H         1.74583720125346    0.21064261378704   -0.29849026460868
H         1.92511686393512    1.40755827318771   -1.62402742053443
H         0.33083138728026    1.07625032356218   -0.91388080018510
C         1.38524673148959    3.97752681568407   -0.45312981701826
H         1.49414331700426    4.85701109392972    0.17898718620865
H         0.38165925358039    3.97124465750206   -0.87458695763051
H         2.12578912627355    4.01098062690922   -1.25152051208100
C         0.88037613323956    1.16482811387475    5.79863132024143
H         1.55702367076998    0.35468675846488    5.51262679479667
H         1.46282477452505    2.09520830208417    5.86117133200976
C        -1.08541278914896   -0.37018183958112    4.46882732932833
H        -0.38280531930851   -1.04231154947644    3.97886758264617
H        -2.03167505419677   -0.38477909002005    3.92971557002361
H        -1.23480448286029   -0.68155991241552    5.50274452110474
C        -1.72591718569784    2.25370553125627    5.29811373736764
H        -1.36767416244308    3.24536885093894    5.57278399222186
H        -2.07720441985010    1.71987144666521    6.18066968773124
H        -2.55611743335587    2.37276593444793    4.60358944078742
C        -0.58344994024810    3.54010428530251    2.36258458554020

