76
CSD_code = JAFZEY | q = 0 | S = 0 | Stoichiometry = C24H40BN7NiO3 | MND = 5
B        19.31536649859469    3.73288741812135   22.30592270991857
H        20.43484693111168    4.04977115988232   22.48531312171037
C        20.10913708509975    5.02777609564933   25.06530549759895
H        20.50780847186951    4.03182117606342   25.24825764732296
H        20.10279775800535    5.57972120110830   26.00124416658325
H        20.76962749420935    5.53187569810474   24.36243703981288
C        18.72602492894536    4.94743555957086   24.52882120272789
C        17.56421721187652    5.44942863040478   25.08169517536736
H        17.47829284981119    5.99150007758192   26.00022497456551
C        16.54041473120360    5.10915049873241   24.19283786914376
C        15.07689346051643    5.42724494173402   24.33364723037915
C        14.40621380177598    4.27790551659854   25.09920580686753
H        14.59247279139185    3.32630254501038   24.61090706991280
H        13.33198771522747    4.43744504994595   25.15836968941586
H        14.80470464117740    4.21609296324885   26.10971218840616
C        14.44681273638693    5.59544266654534   22.95009176449031
H        14.84005781648793    6.48441723470303   22.46149649435019
H        13.36632926212576    5.68787200498594   23.02915988895638
H        14.67614896293338    4.73706663329036   22.32020834422557
C        14.89071018989301    6.72921601172362   25.12121424799518
H        15.22221815320028    6.61707201478656   26.14994336459722
H        13.83738190375864    7.00026941292432   25.13359145764146
H        15.45092307358001    7.54049050173447   24.66126397617556
C        20.90031770873361    5.40240916663884   20.19817571000722
H        21.01345259201089    6.03236054278930   21.07816038590634
H        21.20325168848148    5.96631854631554   19.32013961918176
H        21.55773856817966    4.54244770952684   20.30898805015524
C        19.48841273456100    4.96832701917026   20.04018602255573
C        18.64083644975449    5.20756742674212   18.97604617569618
H        18.87982084736336    5.75252783412244   18.08749175807432
C        17.42705911904753    4.59772188876646   19.29979212259750
C        16.18505555852164    4.58574828896003   18.44973421558673
C        16.42489810519567    5.34445576991238   17.14049544077610
H        15.51739896983074    5.32445701019988   16.54156059375234
H        17.22257875150150    4.88336403862454   16.56300847918227
H        16.68131243582985    6.38348819877521   17.33286777636897
C        15.81105875673102    3.13726265081870   18.12555834407615
H        15.57185747479880    2.60642410481096   19.04216508452260
H        16.63419400415879    2.63123806662695   17.62556665922001
H        14.93832419408734    3.11058298198440   17.47813171079311
C        15.04636401616563    5.26172071750292   19.21774087217013
H        14.82503523314589    4.69614783127903   20.11800528529106
H        14.14849014987280    5.29524727397536   18.60605423761955
H        15.32055882234819    6.27754765901481   19.49432778452214
C        21.39005939794811    1.55280721779695   23.23739743511667
H        21.25166187431022    2.06175376742211   24.18916364402859
H        21.99803042826231    2.19101274004020   22.59886333663889
H        21.92101716845486    0.62096589923303   23.41187181376432
C        20.07855147115776    1.26371975332120   22.60199570385402
C        19.54852767864109    0.03662162786551   22.25422437346724
H        20.01214384914415   -0.91847336911316   22.38754352728829
C        18.29782541243357    0.30675294463542   21.69139209108892
C        17.31373012844629   -0.69292407953179   21.14832006206740
C        18.05079261654503   -1.92540305714315   20.61213209923167
H        17.33984710556081   -2.59652455377943   20.13542300200065
H        18.54241500901574   -2.46916095203552   21.41422533687416
H        18.79929686367291   -1.63642231887170   19.87742703818153
C        16.51271951698454   -0.06415086835143   20.00707407590084
H        15.70675571741815   -0.72371090296627   19.69472861583443
H        17.15898430317738    0.12875140222720   19.15344415995185
H        16.08145376244871    0.88483423001934   20.32283181149901
C        16.38345196125099   -1.12205080648808   22.29162581468836
H        15.90800927600277   -0.25940941965137   22.74834878667536
H        16.95014989481330   -1.63703183332344   23.06454034322996
H        15.61166585896248   -1.79291244049068   21.92119985519991
N        18.39705095461364    4.33955637926269   23.37597026200296
N        17.06896103457328    4.43342504986621   23.17267887992485
N        18.80706007670234    4.25273127579827   20.94610094678740
N        17.55701559598775    4.02477399107362   20.50300910349571
N        19.17989391862229    2.20426483545172   22.26381490389400
N        18.09613037870320    1.62408649555736   21.71402608044467
N        14.42531375015130    2.01055013921513   22.19408499170024
Ni       16.53425500685371    3.04768337007344   21.66665391349983
O        15.50026818618960    2.05478535368312   22.85264718912985
O        14.46164932084588    2.59578455768464   21.09903611029585
O        13.46020783259829    1.44324383250083   22.61263743601141

