73
CSD_code = JAFZAU | q = 0 | S = 0 | Stoichiometry = C24H40BIN6Ni | MND = 4
B        -0.16124598849340    8.54436942575663    0.66934741104272
H        -1.26252266084534    8.88535646222472    0.42443678817700
C        -1.73134833874476   10.33551647215898    2.79109971475439
H        -1.83070068790748   10.95018640762827    1.89801463214595
H        -2.00737060869499   10.92684906081235    3.65999616213527
H        -2.42001649999509    9.49670675316415    2.70199949412221
C        -0.33537581857442    9.85208102917688    2.94155601781126
C         0.54302834559234   10.04682871387716    3.99537424296432
H         0.35136828111353   10.59423031152424    4.89496319100706
C         1.71981188718563    9.38405952014625    3.64069979943024
C         3.01885890523583    9.23999334030437    4.38130197679900
C         2.97138565587900    9.95779634467664    5.72941483551563
H         2.78549307800228   11.02073887713100    5.59347827654381
H         3.92254743705275    9.83899087667006    6.24322500673035
H         2.18746967974534    9.54273366868104    6.35883866452049
C         4.13298210514033    9.81885719801982    3.50567454598908
H         4.13878689701677    9.29040245519240    2.54283485802245
H         5.10455681837397    9.68712007795831    3.97580436103238
H         3.97364559941956   10.87859050150763    3.31917663826219
C         3.28682388317475    7.74616710386409    4.58064865815060
H         2.49862919735294    7.28169696447394    5.16928369549662
H         4.23974089043163    7.58512893735741    5.07904889013505
H         3.32280269511871    7.25905369199874    3.59814912612615
C        -2.34592681105175    6.43391117812897   -0.07639593600405
H        -2.91530862474242    7.10641331012582    0.56322380954757
H        -2.91210556932979    5.51608864367875   -0.21174566389070
H        -2.22029123510546    6.91548984133962   -1.04373016523850
C        -1.02976120603911    6.11140816737529    0.53275853513020
C        -0.56216131188026    4.87888036759123    0.93454663442473
H        -1.08436273468235    3.94810564194035    0.86101969569198
C         0.71679458753569    5.09855835632141    1.45818736932988
C         1.58247293365728    4.01902484191123    2.05353553607383
C         2.56657621442421    4.59153031365534    3.06992499550173
H         3.20818629341311    3.80329706771879    3.45649413364293
H         2.03026577748291    5.04362138140188    3.90167075503308
H         3.19862574128583    5.33979853002756    2.60389415286230
C         2.33726805900086    3.31041941460696    0.92133753280542
H         3.00807672171198    3.99629376614692    0.41350698692734
H         1.63733895464303    2.90978009708141    0.19102826705797
H         2.92671137693192    2.49030493056284    1.32429732893432
C         0.69104092713376    2.99610088349545    2.77310649386248
H         0.08433967956445    2.43298972954621    2.06944087994855
H         0.03168723951704    3.48976446774730    3.48453698366328
H         1.31594841474393    2.29026702818619    3.31583640143135
C        -0.81176816972861    9.41086046961049   -2.26072823617756
H        -1.05856451910405    8.36122415313667   -2.41378094825907
H        -0.79469402853046    9.90884629937807   -3.22651443107613
H        -1.59064368432572    9.85749177506550   -1.64569741279647
C         0.52019236140792    9.54030137624366   -1.61706817950004
C         1.65727909865052   10.12532199688448   -2.13176516516173
H         1.75210436236440   10.59737047941005   -3.08751561551307
C         2.64865783104803    9.97698627935627   -1.15550127775283
C         4.03026575363345   10.56702101189859   -1.26040165338567
C         3.89950313072635   12.01198289023203   -1.76775612875912
H         3.50816260024204   12.04364763040933   -2.78054678252103
H         4.87780130349707   12.48744390913569   -1.76897351926060
H         3.23755826879985   12.58729664456460   -1.12312761269939
C         4.85331355948674    9.75457897770469   -2.26751929875096
H         4.99092030668385    8.73472283475291   -1.92075046244196
H         5.83309684101202   10.20805991315264   -2.39724490619759
H         4.35392495206260    9.72455169445314   -3.23321428221373
C         4.73420743317171   10.59951874171650    0.09288145237487
H         4.15705838271835   11.18737584353299    0.80337554711234
H         5.71974841404042   11.04775663686585   -0.01017005061263
H         4.86361977543390    9.59442528540523    0.47941482229505
I         4.39236949336333    6.68092985521931    0.27609685498609
N         1.00291209626505    6.39816265037547    1.35029960842760
N        -0.06911363157840    7.01417390317331    0.79641776897032
N         1.53151365103125    8.83316403791619    2.44291410324274
N         0.30175678585212    9.11356134255086    2.01978484743291
N         2.12885977718391    9.31187749524601   -0.12201245661152
N         0.82408347877421    9.06475320305603   -0.39601202518424
Ni        2.57200819505753    7.85579051663538    1.31937372636947

