64
CSD_code = JAGFOP | q = 0 | S = 0 | Stoichiometry = C22H36BN4Rh | MND = 6
B         8.22881525543455    2.13960547415870    4.00976906627854
H         9.09537632339529    1.88445803221027    4.79141698573135
H         7.36686404833856    2.82968702858805    4.46114962513827
C         9.53023562818415    2.17764501874315    1.81821643138765
C         8.51168366447102    4.07409642952730    2.30159050778728
H         7.94912081946152    4.76798671496142    2.89228455220881
C         9.03616250300895    4.21212540847795    1.06245129821573
H         9.01498806952969    5.04902907003467    0.39695423647331
C        10.27314862426039    2.78846090963103   -0.54747933021811
C         9.36487184729376    3.35401046977821   -1.65147851281919
H         8.33723760080330    3.03253355075404   -1.49632142848497
H         9.70018683063040    2.98547844615711   -2.61783551538808
H         9.38893921987697    4.43981898072642   -1.68280831876561
C        11.62452665316444    3.51336156347516   -0.58978359717848
H        11.49431659910966    4.57003731892927   -0.36587848181667
H        12.07000929860511    3.42086993264920   -1.57706738233389
H        12.31042744651739    3.09577848144325    0.14201117342636
C        10.44347400566178    1.29144287921187   -0.80837380294866
H        10.84391137090512    0.77913561997225    0.07007790732208
H        11.11584106297729    1.13779328947642   -1.64838036951045
H         9.48005656112936    0.85018884098344   -1.04837780723536
C         8.18556917966764    0.01042349497314    2.57956818946106
C         6.29687762803669    0.45727562009173    3.63013879743662
H         5.63781741794988    0.97795992906917    4.29445712618054
C         6.06657640389141   -0.62242506266313    2.84778881473745
H         5.17660421022697   -1.20154595619372    2.72308027535105
C         7.38065181798095   -1.98546246639927    1.22996949728382
C         6.06270066068070   -2.19536333544401    0.47008603324759
H         5.30436927995509   -2.66185220107341    1.09330288133918
H         6.24073144530038   -2.84859037279468   -0.38075180243378
H         5.67991341810716   -1.24605271858750    0.10154652786989
C         7.72138011989796   -3.26321557453107    2.00705950814993
H         8.66494604414489   -3.15075925656806    2.53237711477786
H         7.79367180882038   -4.11004946859310    1.32924721826646
H         6.94635529738727   -3.47263635801972    2.74188740633573
C         8.46570828948945   -1.65282583763153    0.20499789380263
H         8.09818398932706   -0.89149932760774   -0.47888014498663
H         8.72394112283968   -2.54003593360272   -0.36705296458204
H         9.36065773392939   -1.26701440859873    0.69925679262868
C        12.32436005221346    0.83379229061093    2.22169363778091
H        12.47839023410110    1.60270102461183    1.46766790665903
C        11.89751951293127    1.25945705758963    3.46950223769494
H        11.65640154969777    2.31482145685657    3.58891197713117
C        12.23146242411875    0.54464010766904    4.75903403091924
H        12.31026634183203    1.28184340938646    5.56066546550823
H        13.21063704274457    0.07169056905491    4.65948995632133
C        11.16890709724144   -0.49642998903681    5.15683516625075
H        11.62607330140048   -1.28039249184530    5.77294155534374
H        10.40732612016513   -0.00592931443480    5.76696289609623
C        10.46959640965704   -1.13095825358324    3.97936296495781
H         9.50313844032232   -1.56003083317474    4.24455993767055
C        11.10361905094454   -1.59486008963783    2.83792986594431
H        10.58912789489080   -2.35456602171076    2.25183200817401
C        12.60937417011507   -1.64682557874559    2.67791667649354
H        12.87305469150696   -2.52926967197132    2.08964605640925
H        13.06893653633974   -1.76963200766491    3.65976171991832
C        13.16652587479479   -0.39744674871156    1.97713139922291
H        13.20191029162048   -0.57869210235144    0.89919737330118
H        14.19583513641392   -0.20844588130949    2.30491252775255
N         8.81456604847378    2.82645399674860    2.74474843376310
N         9.65223931818038    3.01963269787573    0.75468004013432
N         7.58883429625551    0.83466193699226    3.45112156456028
N         7.24015406969727   -0.88509582425895    2.17972888711480
Rh       10.21079479385831    0.36540603533008    2.45494931273370

