115
CSD_code = JAGFAY | q = 1 | S = 0 | Stoichiometry = C61H48CoOP4(1+) | MND = 5
Co        3.82434469663424    2.02103482330600    2.57706685013998
P         3.86779197050531    1.29956040910523    4.64197908590177
P         5.31324662642436    3.49713348636202    3.45129888359761
P         3.76762330733837    2.87958144973772    0.54949705249207
P         5.25712659784095    0.42485144251963    1.58167944093754
O         1.04563658920941    1.23709068417425    2.71683210142980
C         2.13500500814600    1.57991712783016    2.59677782012938
C         5.58066852659111    1.45970344274755    5.22892502801465
C         6.20021659721996    0.65065554502965    6.17095927993335
C         7.50761915897057    0.91832635195360    6.54401549468318
C         8.18888483245135    1.99349105150392    5.99570949615881
C         7.57353561006908    2.81129473976405    5.06138445867101
C         6.26961753664958    2.54078367598732    4.67055855553989
C         3.39620815532596   -0.41197419972736    4.99696756346733
C         4.28338012075965   -1.44678970876994    4.70662151900996
C         3.90152489805449   -2.76058972368579    4.90381483086202
C         2.62995887476016   -3.04956460662491    5.37462663842292
C         1.73840540789566   -2.02336835743568    5.64568016051314
C         2.11445087649817   -0.70589003850068    5.45519991187795
C         2.93933736178321    2.22809056795832    5.90100342949604
C         1.93320985522487    3.11127640358390    5.52863921536372
C         1.22954703784370    3.80611728125979    6.49536200452450
C         1.53052958214830    3.62646297224319    7.83484248222135
C         2.53280424150661    2.74534031427695    8.20971352644641
C         3.23599756074567    2.04415572021129    7.24888278482467
C         4.48899966524427    4.70995442465091    4.53561873965398
C         3.44671367349409    5.45128487860478    3.98519166852040
C         2.78514412564806    6.39582423326617    4.74596898241180
C         3.14703300939090    6.59411481356863    6.06880614043802
C         4.17676648134566    5.85221208155428    6.62307908497243
C         4.85350361970344    4.91607252004232    5.86168409645805
C         6.59945284959902    4.52948833684317    2.67404853695587
C         6.66967613846908    5.90706472847643    2.85508882342248
C         7.65506168874844    6.63783402331855    2.21414350295204
C         8.56832966118747    6.00849958959217    1.38446310018880
C         8.50188711228001    4.63625648446097    1.19884334680752
C         7.52233766362325    3.90260106527862    1.83943789015580
C         5.33134970067666    2.44718900145880   -0.28427990926318
C         6.02214997989849    1.32887874227964    0.19532749114897
C         7.21304250737030    0.94006281016505   -0.40805538818907
C         7.70746583074099    1.65443992060072   -1.48534060320506
C         7.00412945790466    2.74037590479417   -1.98303916241126
C         5.81450557512831    3.13114871069715   -1.39348940088765
C         3.59237669184843    4.68197349199937    0.42192921735358
C         4.66135204409519    5.56362823237981    0.31207973866965
C         4.42945204320948    6.92890358310458    0.31308156277244
C         3.14097470640852    7.42081744305536    0.43349121415569
C         2.07208350914810    6.54490529527672    0.55662513243709
C         2.29606697164390    5.18200550532595    0.55875454681986
C         2.58620692769827    2.31770800520163   -0.72322890811719
C         2.41373459736976    3.06414557501356   -1.88767526025914
C         1.57182415624086    2.60786670192938   -2.88361180354365
C         0.89897400849636    1.40518025457139   -2.73345101226226
C         1.06471395783700    0.66232448298535   -1.57746434273256
C         1.90411653375573    1.11662728705888   -0.57599504470610
C         4.27483788375536   -0.81367783469265    0.66728909455214
C         3.27624222959979   -1.48161457372126    1.37382391898194
C         2.49198542004027   -2.43154853550573    0.74759048007514
C         2.68763662200841   -2.71152670570485   -0.59566430494499
C         3.67237224605152   -2.04391394658805   -1.30454890834400
C         4.46855007573824   -1.10014941031503   -0.67942273974925
C         6.63900975098562   -0.60521261014459    2.18618114550162
C         7.69207199321817    0.03303437985665    2.83773347241469
C         8.73334652118858   -0.69841328647085    3.37500750826577
C         8.73024300753507   -2.08061748692812    3.27581758686163
C         7.68369214694711   -2.72321247601888    2.63484475421200
C         6.63871174068977   -1.99433116403816    2.09476971718491
H         5.67591408638607   -0.19077872101971    6.60205271713145
H         7.99605505952669    0.28373170361746    7.26779092423764
H         9.20540010842062    2.19711634496560    6.29693037442361
H         8.10579056858067    3.64982488618253    4.63389595370138
H         5.26848509721351   -1.21573605008274    4.32337845056282
H         4.59538126449452   -3.55807237918704    4.68394294176935
H         2.33199886512866   -4.07563754256236    5.52684186905418
H         0.74654109139652   -2.25032047515354    6.00583088167512
H         1.42012583750074    0.09698756142072    5.66280979817144
H         1.71020889651996    3.25903037375111    4.48025635815933
H         0.44675634116861    4.48894635609425    6.20190799379853
H         0.98416787609247    4.17231417387441    8.58855036586899
H         2.76570777583199    2.60365175471701    9.25417539331339
H         4.01524240444826    1.35435123970916    7.54120797114702
H         3.15873581273839    5.27732580459123    2.95709325907251
H         1.98393299266876    6.97266804995085    4.30852422145614
H         2.62670056858803    7.32525103949005    6.66834931021041
H         4.45822986298715    6.00423787327250    7.65425436626369
H         5.65946309797714    4.34706825389608    6.30330861817052
H         5.95711498952740    6.40866940110029    3.49304579333689
H         7.70818556426370    7.70573555995402    2.36427322608175
H         9.33121137392795    6.58448559953176    0.88337413474653
H         9.21017203185506    4.13847840402209    0.55321108244554
H         7.46528889608366    2.83357157887664    1.68799439713912
H         7.75042599988185    0.08007525281520   -0.03286597556205
H         8.63638308192086    1.35459323668504   -1.94653126575002
H         7.38320822137485    3.28463995736527   -2.83462672699706
H         5.26852290660397    3.97141384989566   -1.79590909724223
H         5.66994614094614    5.18970872834179    0.21758240846775
H         5.26313093613113    7.60846036998386    0.21868256886385
H         2.96743062674392    8.48599349086196    0.43191162293780
H         1.06683963067563    6.92657591081905    0.65305814363714
H         1.47106998667722    4.48742295262642    0.66281641582415
H         2.92246874495713    4.00999600272488   -2.00810286567151
H         1.43847418291280    3.19387714112313   -3.78050296167558
H         0.24318903559132    1.05253588106437   -3.51459352034845
H         0.53986468440993   -0.27228531845066   -1.44965436654477
H         2.02712971794528    0.53547692499363    0.32534651521909
H         3.11505147153643   -1.24525717055998    2.41755183556750
H         1.72428746835307   -2.94658346798071    1.30577285694631
H         2.07182292572373   -3.44755387613891   -1.08965949606609
H         3.82374214885917   -2.25857144210413   -2.35173471011762
H         5.23334362924832   -0.58706007386814   -1.24428547788226
H         7.69206353471657    1.11060370466432    2.92509167159899
H         9.54476412930455   -0.18986876851791    3.87408694999982
H         9.54053366940691   -2.65500815106236    3.69784607563721
H         7.67979184568943   -3.79996332184250    2.55425277708015
H         5.82360926049228   -2.50501793655485    1.60297489974804

