95
CSD_code = JAGJOT | q = 0 | S = 0 | Stoichiometry = C50H38CuN3OP2 | MND = 4
Cu        8.37388789615565    3.60255168222944   12.78271223123996
P         6.86569588197652    2.04159298050479   11.79628295031175
P         8.27510032239302    5.40102873411812   11.44826191475334
O         5.77548052946386    4.41284793372313   11.37569635558207
C        11.42999989461540    3.15920644717924   11.39885499317718
H        10.69385153346457    3.91786581124297   11.63539087605048
N         9.77242984758460    2.69853408370768   13.75533454215171
N         7.46486278298839    3.77628892627457   14.63051521263823
C        12.14434807100573    3.19531771251389   10.22169087867692
H        11.97034652854244    3.98199989890919    9.49910209078309
C        13.09400054513583    2.20902475192029    9.98280900891198
H        13.67540726601372    2.19758354910852    9.07343956003588
C        13.27850573733118    1.24147542281493   10.95854612253056
H        14.01524792628767    0.45691364230405   10.82771247808788
N        12.59615087399724    1.18795635712281   12.08480496010644
C        11.66939761178993    2.12359310260082   12.31746013666603
C        10.92677752796063    2.03521855826251   13.55199252519880
C        11.26787754287756    1.31012171492569   14.70805429666226
H        12.14247142272016    0.70025691838760   14.81945564031935
C        10.28307901875071    1.56358751901324   15.64172668321155
H        10.22764536900994    1.17957519121795   16.64328040556442
C         9.35916129074067    2.42466932570223   15.02303466603339
C         8.14056250816762    2.99691154095155   15.49867867816772
C         7.63457362474259    2.77762176540707   16.79234796919426
H         8.18977897962879    2.15952407964313   17.47964038701165
C         6.43821190063801    3.34728487560653   17.15480511806734
H         6.02894474430190    3.18409486338934   18.14200244636368
C         5.75332856861327    4.14264871406350   16.23654439652784
H         4.81134514312329    4.60338434392371   16.48799340465747
C         6.31865688894770    4.32534790684718   14.99081764184515
H         5.83500254254832    4.94115479231101   14.24114469648911
C         9.63739325648531    6.60196777261919   11.49703631932238
C         9.97106874609160    7.08393387981300   12.76179470397610
H         9.39123332196723    6.75462874729291   13.61527300251467
C        11.03079806575341    7.95579062830749   12.91617216351812
H        11.28401692955252    8.33262220589580   13.89622366622336
C        11.77887924777325    8.33437103647185   11.81152564577999
H        12.61306478884296    9.00977524319094   11.93099630999232
C        11.46646063441554    7.83674573695586   10.55725463328795
H        12.05833998380264    8.12385975412667    9.70014540797204
C        10.40073880297060    6.96886896637066   10.39530843072643
H        10.16214507134499    6.57633694173253    9.41657634233158
C         8.13821504700398    4.96939261199105    9.68139499946627
C         8.51986052648528    3.69108167244794    9.29092077370900
H         8.92516123187005    3.01292311959122   10.03088135602898
C         8.37706477127052    3.29223040990627    7.97448291526647
H         8.67131733373849    2.29572806144363    7.68032303863477
C         7.84833428424232    4.16766521455871    7.04115078138389
H         7.72735561726270    3.85577303855003    6.01436004234075
C         7.47327037634118    5.44601978110618    7.42334126081591
H         7.06506854760784    6.13029165249850    6.69353212671551
C         7.61472582538424    5.84953017137682    8.73812172812457
H         7.31866034910956    6.84666545748209    9.03659716173620
C         6.81461478148667    6.48663024736257   11.58994173982826
C         6.77704568238320    7.85170599284186   11.82685972548152
H         7.69839989788243    8.40747313685179   11.92649736737429
C         5.55207260323331    8.49410332934103   11.91958697615837
H         5.51938967614344    9.55952978001704   12.09196493045963
C         4.37130652075098    7.78198860427282   11.79278512705909
H         3.42299446821441    8.29229996999603   11.86905726263893
C         4.39261829417334    6.41060878739375   11.57981652945518
H         3.47402853041310    5.84662948172644   11.50777942679070
C         5.61510945967390    5.77258884648324   11.48068274828545
C         5.36787084014886    3.69164766856138   10.29232290638974
C         4.66184080627593    4.17191848158117    9.20606791914338
H         4.35267932569931    5.20595432493422    9.16317903688909
C         4.38558842284920    3.30657200151373    8.15754202870966
H         3.83438055952080    3.67170258467267    7.30409962225862
C         4.82266262404030    1.99461205765861    8.18973713265369
H         4.60935045666756    1.33651755233491    7.36101585570377
C         5.54606875061125    1.52191925256673    9.27397753362067
H         5.91059825737137    0.50546982874682    9.28544159884956
C         5.80798434569863    2.36094464201105   10.34284434314777
C         7.50749992210150    0.36939796745957   11.45767274906748
C         6.69516037851709   -0.76123582589224   11.41849711263450
H         5.62987884453175   -0.66402649063981   11.58247436538724
C         7.25617943030321   -2.00236871657191   11.18347447741701
H         6.62498479823601   -2.87919855402767   11.15053537808758
C         8.62557031824119   -2.12771023965909   11.00041327792880
H         9.05708897226396   -3.10282903946957   10.82761591305404
C         9.43841540526376   -1.00810093172871   11.05022424231861
H        10.50762120497916   -1.09963664483749   10.92965713317266
C         8.87858035915313    0.23682604067757   11.27518083636978
H         9.50862374772224    1.11321357939990   11.33723908431368
C         5.64806510620313    1.64723904429504   13.08843762450975
C         4.33603258458778    2.10436572686417   13.08942995615336
H         3.95101688944492    2.65284823212101   12.24157801243127
C         3.51507130996187    1.84706977614311   14.17305045974178
H         2.49367230430112    2.20081474894333   14.16706819595131
C         3.99561874241722    1.14061669964882   15.26221457095150
H         3.35179046465461    0.94616297486637   16.10738261273776
C         5.30433765211512    0.68380336908599   15.26653453833216
H         5.68359420215380    0.13357761229670   16.11526825201930
C         6.12813308602408    0.93805451934321   14.18866774487280
H         7.15475689274140    0.59471433114515   14.19073757476930

