53
CSD_code = JAGKAD | q = 1 | S = 0 | Stoichiometry = C18H24CoN6O4(1+) | MND = 6
Co        5.16976663793589    2.32561356015110    3.82435249323326
N         3.92116616987578    1.08463741059059    2.79316360106711
N         3.52642732944242    3.60276105382218    3.52518741499714
N         5.97471027158578    4.09159031521040    4.67399904865050
N         6.19185258983922    3.20389966858846    2.19778519637529
N         6.61431944690764    1.33350830814466    4.00929193923521
N         4.51279896775637    1.65701076295347    5.33516446470137
O         7.23410276592401    1.57185799771557    5.01659512524024
O         6.91651102753275    0.59481533680455    3.11210644112172
O         4.39066559458029    2.44828858079374    6.23595523065339
O         4.26882850045658    0.48059947387299    5.35367281255820
C         4.23190414056980   -0.07121181159166    2.21364847859928
C         3.28211889970958   -0.91180633176564    1.66112528279528
C         1.94920286249302   -0.53826323683458    1.71532476772985
C         1.62619332809147    0.67175860403834    2.30659061596461
C         2.63460547136985    1.46042779284561    2.84011866414106
C         2.32169758304990    2.77186395554490    3.51674900008828
C         3.57637822245000    4.69255379242774    4.51020876432730
C         5.02059273623567    5.21406235928599    4.51843845762503
C         5.17320172417882    6.26728539179088    5.61502739788067
C         4.20572513865988    7.42277251802909    5.36339070321377
C         2.76721097099102    6.92011791478681    5.29706140738745
C         2.61424326983004    5.84512208718978    4.22186806881037
C         7.25658810093369    4.37882686943759    4.02491260360097
C         7.16644110464948    4.04660916554330    2.55877381929597
C         8.06652700671782    4.56547188440779    1.63732543338151
C         7.96346311953132    4.19055896478980    0.30910361279281
C         6.95012651918860    3.31727209837944   -0.05909363513921
C         6.09050137316965    2.85168500720661    0.91771577529991
H         3.61993374256007    4.02335439155702    2.59882080181524
H         6.12853055323344    3.95142481379749    5.67451887289459
H         2.02024670669932    2.57122715438182    4.55160349947125
H         1.47558109816210    3.25717280284837    3.01607523407350
H         8.03531079811731    3.75501968667414    4.47671326219648
H         7.55742666136914    5.42446111768255    4.15677510387562
H         3.34596500937602    4.27169881851340    5.49347282017725
H         5.21777654523989    5.67166213271025    3.54067116104584
H         6.19674832791600    6.64497579901655    5.64263963011654
H         4.95386302198788    5.80938569292386    6.58180893101561
H         4.30143704009095    8.15669499431192    6.16286467199260
H         4.46467798938305    7.91786021569188    4.42487195253078
H         2.09597948858390    7.75077814482092    5.08041687704700
H         2.48221734456548    6.50408761966374    6.26469364750958
H         2.83304664453660    6.27331422348513    3.23968069615335
H         1.58534331371914    5.48277075696172    4.21349841563964
H         5.28006830502149   -0.33610304864878    2.19627137239931
H         3.58695360230767   -1.84129859717638    1.20995323244799
H         1.17772824384916   -1.17194531230840    1.30733714980662
H         0.60182063214882    1.00347202483397    2.36695097462099
H         5.29277330012486    2.16515786570957    0.67173802490947
H         6.83226067878155    2.99753249680216   -1.08106037772424
H         8.65884570396145    4.56968637270812   -0.42298610662570
H         8.84039437460643    5.24072033887851    1.96590716698145

