117
CSD_code = JAGTOB | q = 0 | S = 0 | Stoichiometry = C56H54FeN6 | MND = 6
Fe       -0.00005905585009   -0.00000568005893    0.00009152829589
N         0.57746883941603    0.81192330606560    1.73380641048852
N         1.65783751405728   -1.11824558437593   -0.03366273719177
N         1.09079672144489    1.48675707368491   -1.17123406872290
C        -0.06475319855892    1.78049726961283    2.44386922079715
C         1.72656160341594    0.55111276156428    2.41795320391911
C         2.66236902466227   -1.12412311871599    0.88727807317798
C         2.01298798561026   -2.03561570413833   -0.97537444570289
C         0.70849961327689    2.15690209590403    3.59385529111122
H         0.43580146490428    2.91589808549996    4.30130302944389
C         1.82139574002383    1.38868488688062    3.57963672590485
H         2.64037919784436    1.39283717799990    4.27265916476231
C         3.67924218984031   -2.06639603360638    0.51589896617478
H         4.57079536601655   -2.26739017065307    1.07764388714818
C         3.28027001538714   -2.62648886793209   -0.64858400548361
H         3.79032962143048   -3.36320283507681   -1.23848413354393
C         2.71344605342950   -0.35760532612577    2.04773314970837
C        -1.28245543865245    2.36639532388327    2.11260906211494
C         3.88196998073641   -0.51715778634097    2.94062670319144
C         5.14750311152184   -0.10478289919611    2.53629690471732
H         5.27107894553826    0.34244823695285    1.56002667443070
C         6.23672123365923   -0.25716230151369    3.37503969716588
H         7.21433219163141    0.07011218349149    3.05105752797768
C         6.07688361121299   -0.82687782213986    4.62705865200195
H         6.92838782495464   -0.94763691335092    5.28070976867693
C         4.82086845078038   -1.24060374606321    5.03785066752075
H         4.69086333855215   -1.68749605660884    6.01317645768369
C         3.73039300265622   -1.08492657236513    4.20167961478494
H         2.74985835395971   -1.40968857105930    4.52027110413806
C        -1.82441523277098    3.40791886006622    3.01186436426646
C        -2.21857420009749    3.09271235176246    4.30845766809949
H        -2.12830477044079    2.07298861365154    4.65516223248992
C        -2.72762761469882    4.06857806789492    5.14589909853939
H        -3.03359285500074    3.80962325774279    6.14944646260415
C        -2.84654223284710    5.37452691282281    4.70115091153375
H        -3.24334232500387    6.13660089109464    5.35573920728365
C        -2.45409273863688    5.69895161998846    3.41329793235042
H        -2.54228318756556    6.71695208913319    3.06172392737423
C        -1.94841528676829    4.72300124340907    2.57423105508281
H        -1.63912327035607    4.97589081414387    1.57005938505777
C         0.27328425367817    2.43636660857690   -1.92244415766982
H        -0.17140935197135    3.13374871690265   -1.20867557752278
H        -0.53341828678697    1.88747368212472   -2.40875549003852
C         1.09574763599915    3.19954505411283   -2.96161022846611
H         1.49421254745559    2.49481857994698   -3.69696406330285
H         0.45206130487879    3.90453090367365   -3.49052728126149
C         2.25347216596791    3.94155208304221   -2.29255862544164
H         1.83759774266016    4.68382442150039   -1.60196068007761
C         3.07572967096828    2.93613410731587   -1.48512658819192
H         3.86962402030049    3.45040219483320   -0.94088418203034
H         3.54659749285287    2.22237326264625   -2.16705936440748
C         2.18527413212488    2.18086705187451   -0.49692448286241
H         2.77277295444982    1.44543396995002    0.05326695899568
H         1.74898960987383    2.87638306598093    0.22403373418238
C         3.11684840307467    4.66266451734352   -3.32341012555735
H         3.93237199218760    5.19201405451304   -2.83624593890598
H         2.52379859568887    5.38349991228413   -3.88145754207717
H         3.54303310145596    3.95147351536718   -4.02815078239784
H         1.50821073084800    0.84340667369046   -1.84582840021139
N        -0.57757224642506   -0.81188963393537   -1.73365074732087
C         0.06486295825479   -1.78016742478104   -2.44392063469553
C        -0.70839056804106   -2.15662447012659   -3.59388905522334
H        -0.43553003483502   -2.91542745724091   -4.30148194483555
C        -1.82154034548624   -1.38877914888793   -3.57941266082653
C        -1.72681054645633   -0.55131194840844   -2.41764615463899
C        -2.71381602708033    0.35721432496719   -2.04728278295159
C        -2.66260016144714    1.12391542858830   -0.88695337635485
N        -1.65791792933669    1.11826221495252    0.03382364799331
N        -1.09091613475724   -1.48687343838739    1.17140143584444
C        -0.27332970523142   -2.43648244229460    1.92253376911627
H         0.17148096638375   -3.13371720785347    1.20869378224167
H         0.53328314357384   -1.88755615421035    2.40895316532184
C        -1.09573486431065   -3.19991126094540    2.96156322024778
H        -1.49433847717466   -2.49534291907815    3.69699348775784
H        -0.45196831717366   -3.90487448988570    3.49041331358755
C        -2.25331499198173   -3.94199430120634    2.29234881427182
H        -1.83729341811295   -4.68408300033957    1.60164176782225
C        -3.07568881589587   -2.93656069481629    1.48505664151233
H        -3.86949757437325   -3.45084799008279    0.94070689323850
H        -3.54667235754395   -2.22297519323524    2.16709293214894
C        -2.18531095641295   -2.18101928876672    0.49699252882530
H        -1.50839435321865   -0.84361232411385    1.84604021899144
H        -2.77289889222454   -1.44557685961463   -0.05308936989516
H        -1.74893477732222   -2.87637023000745   -0.22406926242416
C        -3.11662154860478   -4.66342198403741    3.32303799013936
H        -3.93199848090718   -5.19287444340066    2.83573914930929
H        -2.52346549287114   -5.38421191552207    3.88103199236222
H        -3.54300663269809   -3.95241499190381    4.02784316606901
C        -2.01286939686538    2.03592888727092    0.97531920969127
C        -3.28017509082809    2.62676924383635    0.64856190796069
C        -3.67939560020330    2.06630633351024   -0.51565766391496
H        -4.57104971316459    2.26714670758143   -1.07729794539516
H        -3.79009274262853    3.36369144553156    1.23832544961922
C        -3.88258410948326    0.51645357939820   -2.93991106596914
C        -5.14793575254667    0.10391472032836   -2.53517712502848
H        -5.27116695304154   -0.34319254972352   -1.55880657341250
C        -6.23741051650642    0.25598607715651   -3.37364120707809
H        -7.21487514004485   -0.07141242055072   -3.04934430489505
C        -6.07801691195546    0.82555816644832   -4.62578208493543
H        -6.92972063710815    0.94607742942895   -5.27921674586401
C        -4.82218808763453    1.23945662376177   -5.03697089240382
H        -4.69253137803492    1.68624356514225   -6.01239088012610
C        -3.73145551034720    1.08408626716094   -4.20107809147976
H        -2.75106892963464    1.40899288248390   -4.51997583541789
H        -2.64060759707308   -1.39309991915924   -4.27233431322360
C         1.28271828009913   -2.36584479318919   -2.11282532647771
C         1.82497131588516   -3.40688480762685   -3.01246390158720
C         2.21908216140202   -3.09101728820328   -4.30891195502306
H         2.12853006736652   -2.07117232432734   -4.65518687765855
C         2.72843092648463   -4.06638189390870   -5.14675535395539
H         3.03435498721288   -3.80691302017994   -6.15018227794339
C         2.84768914696937   -5.37248720133017   -4.70255986351740
H         3.24472250311689   -6.13417158725854   -5.35745954905183
C         2.45527475406638   -5.69757203949706   -3.41486299095616
H         2.54372258207204   -6.71570081505041   -3.06372653746482
C         1.94930059215153   -4.72212116090425   -2.57539290735695
H         1.64002502755429   -4.97553037318139   -1.57134774688879

