104
CSD_code = JAGVEV | q = 1 | S = 0 | Stoichiometry = C50H50FeP3(1+) | MND = 8
Fe        0.41887584962212    2.16467028586570    3.49343690521403
P        -0.44637053720468    2.10173530306677    5.50194687222852
P        -1.58515418823037    1.96493677741433    2.70143585604407
C         1.75178008782098    1.91521144230894    1.88882778270253
C         1.42012393108929    0.60056300707696    2.35917048241698
C         1.81370901656923    0.51225912975576    3.70976943996699
C         2.43587597925213    1.76386921072001    4.07753923477855
C         2.43365730707526    2.60271197731165    2.93935677559771
C         1.70657631623480    2.38159880584709    0.47248155922387
H         1.05102571359939    3.24529370149373    0.36650541853469
H         1.35830226760617    1.59484790624353   -0.18931780101345
H         2.70517583112158    2.68129234470350    0.15608911924245
C         0.93445362475975   -0.51454122720332    1.49382707685237
H         0.68935841021985   -1.39538851132983    2.07879182639272
H         1.71919165963742   -0.78490073718429    0.78612112211665
H         0.04959302724325   -0.23152030279036    0.92734703524049
C         1.89134815770032   -0.73037946310601    4.53443083628799
H         1.18227306156199   -1.48334569288744    4.20121366415943
H         1.70933780031385   -0.52740602313072    5.58682382231309
H         2.89386958729840   -1.15196000460538    4.44558528644323
C         3.21329485057108    1.98464376094967    5.33087895390769
H         4.24707389113116    1.67415149291049    5.17008636381897
H         2.81060110141220    1.39750049326098    6.15160593106385
H         3.22007299052338    3.03199560323026    5.62110637341000
C         3.14567261884026    3.90109984725935    2.77882191662746
H         3.32862758540552    4.37795779044610    3.73764555026942
H         2.57567673799730    4.57929619487606    2.14542267327591
H         4.11093142030070    3.72723445262336    2.30127176891450
C        -2.29576405564850    2.01469457543350    5.33968706277292
H        -2.59191905425715    0.96264118946461    5.35051337510634
H        -2.78021159183989    2.51592764615100    6.18189054486918
C        -2.70062916633134    2.64001388565508    4.01301050272825
H        -2.54729067664649    3.72257190162664    4.05020624734365
H        -3.74685844406770    2.42589586417155    3.77176172270178
C        -0.12883582554185    0.87018900046895    6.81562006528830
C        -0.73752515430045   -0.38291030575310    6.82099682991760
H        -1.45469937789444   -0.65097585093323    6.06007644147034
C        -0.43574056968732   -1.30400973992924    7.80815143408818
H        -0.92376866252588   -2.26693268881701    7.80656124594957
C         0.48791347543563   -0.99669405907587    8.79331596728741
H         0.72242794023801   -1.71806936566258    9.56040858903475
C         1.10826119567891    0.24188480759975    8.78950481896509
H         1.82881183962659    0.48975781762137    9.55409364787728
C         0.80603139875492    1.16743062751452    7.80763800471376
H         1.28508326980398    2.13625281402470    7.82048807350935
C        -0.20471423830984    3.63170213075399    6.46610512657717
C        -0.92936769824106    3.87545785967537    7.63081234960835
H        -1.64663421085682    3.14864445794002    7.98711033579569
C        -0.71676510722001    5.03848233691282    8.34715201008015
H        -1.28492094259938    5.22630791625367    9.24555827938620
C         0.22808965605565    5.95883547789549    7.91974325159136
H         0.39126433343127    6.86465338884856    8.48307566549330
C         0.96945110243830    5.70921181571122    6.77694349033761
H         1.71589012547425    6.41924214814748    6.45251855241977
C         0.75488495758486    4.54800807977286    6.05562562869448
H         1.31700396520092    4.33469878106051    5.15830489533475
C        -2.17531008475449    2.76767097563827    1.18596685616588
C        -3.10209679871715    3.80431541593866    1.16363846026561
H        -3.49230293761714    4.21713543604081    2.08078085944094
C        -3.54523281898030    4.30842363522629   -0.04661295217642
H        -4.27921658219535    5.09968283144958   -0.05622500473151
C        -3.05183714963749    3.80652396841399   -1.23861922113705
H        -3.40182198168894    4.20650113272756   -2.17756966207084
C        -2.11187909779573    2.78840441780607   -1.22374130275345
H        -1.72385845735858    2.39455115160850   -2.15095832680167
C        -1.68328403395949    2.26881366083399   -0.01805916469587
H        -0.97363562439363    1.45465721555400    0.00463349635807
C        -2.27770576835776    0.28669564428025    2.54246358518648
C        -3.38018273395994   -0.01043346539221    1.74876647422070
H        -3.83555924948295    0.75965111581877    1.14255805368813
C        -3.88753921339017   -1.29787375942985    1.73852138087899
H        -4.74161400300580   -1.53071363001024    1.12095998329243
C        -3.30715982302866   -2.28700997499636    2.51688141196009
H        -3.70873444395477   -3.28845924046382    2.50228640050462
C        -2.21031474386068   -1.99234443259475    3.31115680339426
H        -1.75775438654379   -2.76379110116874    3.91734292161594
C        -1.69672909518391   -0.70911127619991    3.31847672904817
H        -0.83161202981263   -0.45140176939794    3.91564759044014
C        -0.01598731437113    3.86723157169104    3.28544941378064
C        -0.21562923729391    5.09541419013632    2.96911723198299
H        -0.52479378080619    5.87681887554689    3.64925606645058
P         0.27528843242627    5.73462641392518    1.29419500613945
C         1.14236425129303    7.24827787497146    1.87755485846844
C         1.81188642055504    7.30252669662623    3.09499626512560
H         1.78635930894464    6.45420480971722    3.76446832241040
C         2.50698345255866    8.44213605141445    3.45761847196211
H         3.01674759414042    8.47921182922760    4.40945417854086
C         2.55481406127169    9.53120147334727    2.60460461837989
H         3.09682984276581   10.41949317003455    2.89051450276296
C         1.90898934829297    9.47453673718919    1.38023891027650
H         1.94846929184853   10.31801405384501    0.70764147626837
C         1.21237369356350    8.33862694815396    1.01444161232201
H         0.71056336908488    8.29740377899329    0.05731195459191
C        -1.26751731133512    6.57964452795204    0.76115903014828
C        -1.47876201191975    6.65024747026223   -0.61214907982835
H        -0.78201403643854    6.16072357861531   -1.27965713936809
C        -2.55974929387754    7.34711352601745   -1.12023939495371
H        -2.70761489955855    7.40962423025074   -2.18797257544916
C        -3.44966885003650    7.96394872765697   -0.25721074046127
H        -4.29538592089140    8.50836294316869   -0.64931210091763
C        -3.25197223576418    7.88492378416171    1.11201608336854
H        -3.94422545451692    8.36819426428832    1.78586151810155
C        -2.16291842669520    7.20222144046166    1.62160062143685
H        -2.01307181875591    7.16804300301483    2.69174951146213

