45
CSD_code = JAGVAP | q = 0 | S = 0 | Stoichiometry = C20H16N2NiO6 | MND = 6
Ni        6.46129036514037    1.60077769156585   10.24753579587417
O         8.06217901630687    1.13299270124423   11.00262177333496
O         7.02898925041286    0.00720151541945    8.52141131477958
O        10.07006478385583    1.89014758753985   11.56075699648390
N         7.56642203885442    3.16415627662965    9.45066365903313
C         8.68566338271020    3.22800188737996   10.15340878371379
C         9.57576721819898    4.31164799618524   10.10732061595909
C         9.28466495070327    5.37153339363790    9.29735866608261
C         8.12220805054191    5.32308954025328    8.50105256011987
C         7.78229010761325    6.35703476402091    7.60476662140327
C         6.66341911058975    6.26542233694421    6.82543682319962
C         5.83881341226241    5.13256549862994    6.90864874580212
C         6.13414744892355    4.11316017457108    7.77111299383811
C         7.27321516827489    4.18196619246011    8.60006365762935
C         8.99702745191706    2.00339105071630   10.99822314247728
H         7.33951967298484    0.53860635502200    7.78204748276481
H         7.80316870691538   -0.35997453870186    8.96386986342636
H        10.45820086492250    4.26047681795817   10.72556791965768
H         9.92991959988069    6.23686139983023    9.24229151861942
H         8.43104949534102    7.21899265071605    7.54524268316211
H         6.40994955945895    7.06031756040657    6.14005058515859
H         4.96209367196473    5.06839532550637    6.28224396699152
H         5.49670501378482    3.24738527198368    7.85310410630384
O         4.86056463153617    2.06830003352597    9.49198131316782
C         3.92575068130124    1.19784939119438    9.49645533026453
O         2.85268752034394    1.31108030078699    8.93396858349555
C         4.23702570896580   -0.02660903265541   10.34155748291222
N         5.35630394809824    0.03722106736125   11.04425282742396
O         5.89345569207105    3.19427944906572   11.97370786728585
H         5.58234274252571    2.66246760505291   12.71250982552582
H         5.11956513635438    3.56121163287602   11.53050983966796
C         5.64949358324134   -0.98050685449983   11.89495904720227
C         4.80040523539837   -2.12153850673382   11.99418154568658
C         3.63793882736446   -2.17000812457363   11.19789473828229
C         3.34687152342281   -1.11020467219846   10.38780935238690
H         2.46446819152989   -1.05909880212312    9.76951635770142
H         2.99265611435442   -3.03531104422240   11.25305555407637
C         5.14028229095262   -3.15538905704327   12.89059333376370
C         6.25916543027498   -3.06373145373388   13.66989980718220
C         7.08381640326408   -1.93091818547068   13.58655252328933
C         6.78852982102463   -0.91161408613702   12.72395069221844
H         7.42597035839941   -0.04584536076269   12.64189504566182
H         7.96053777398552   -1.86671069073971   14.21295030854078
H         6.51260390902584   -3.85855452728766   14.35538367258039
H         4.49149613500538   -4.01731853160040   12.95021467586823

