59
CSD_code = JAGZOJ | q = 1 | S = 0 | Stoichiometry = C25H26N4NiO2P(1+) | MND = 4
Ni        2.03365079979145    3.49565752315574    6.88123924315400
P         1.11044565708881    4.12038643589789    5.09451419948582
O         2.79687878692131    2.66514851001267    8.52288317208730
O         5.30898175858283    3.57883474414917    4.43671408837926
N         0.69657459569413    3.22003360006858    9.20664602643315
N         0.53905065905433    3.73826577555776    7.93896989168853
N         1.22984842343855    2.11583597108049   11.80959065458786
N         3.50675617996464    3.24482448507085    5.90831038201240
C         0.07384170700813    1.32366574143471   11.35232244359275
H        -0.32305391952939    1.78146746843276   10.44631358852235
H        -0.69486619753470    1.30481515280212   12.12199758832459
H         0.38149693249239    0.30309702701203   11.13324223759469
C         0.79325397494056    3.49164124853575   12.10935486984598
H         1.63315423014853    4.08219404284997   12.46986506110658
H         0.01535760645839    3.48014430325083   12.86984735785680
H         0.40720592929705    3.93690305209032   11.19211298758216
C         1.79203786573374    1.50441784757840   13.02717387728792
H         2.11178617137978    0.48327858060464   12.82649725469375
H         1.04049747971828    1.48643035607077   13.81486711471556
H         2.65039376576010    2.07548637518486   13.37696694823843
C         2.27300910906899    2.13597009667574   10.75750778781961
H         2.62217870586072    1.11603626624349   10.57440999904895
H         3.13103578316860    2.71470374327004   11.11098771522945
C         1.89440898509328    2.71621459938325    9.38863822528537
C        -0.59971415411594    4.32342249919537    7.75260443266594
H        -1.27672242022781    4.33227482919919    8.60757998063317
C        -1.08138215484975    5.02040283314137    6.58620606679183
C        -2.29907258410673    5.70281506773758    6.71464127895390
H        -2.83372440968421    5.65353707466648    7.65208538778326
C        -2.81832463469497    6.44283541281235    5.67244189793114
H        -3.75532116128552    6.96297156839073    5.79642108504521
C        -2.13083230479393    6.52439089570320    4.47054772458604
H        -2.52695782432711    7.11030702547373    3.65579954361992
C        -0.93253686405416    5.84888132945537    4.31718595785202
H        -0.39161639173845    5.91884695655462    3.38426889588336
C        -0.40437906667375    5.09050466702838    5.35449158926771
C         0.46826904555333    2.59393917506526    4.34580463559424
C         0.79239327401051    1.38483860031164    4.95463636308805
H         1.43626422741582    1.39268924549097    5.83799770979798
C         0.32394213331553    0.19632759967870    4.42503498294925
H         0.58161516837069   -0.74283957640556    4.89058996727876
C        -0.47031090249545    0.21387226135308    3.28935002135494
H        -0.83308269822032   -0.71287289317275    2.87205037371632
C        -0.79745371486257    1.41764158050603    2.68383586271943
H        -1.41443086127788    1.42596580246861    1.79824932840150
C        -0.33393605280251    2.61017922483998    3.20900183362079
H        -0.58757840611552    3.54840665967942    2.73729216320990
C         2.02448065340292    4.99549566274870    3.80807087617027
C         2.55972330571320    4.31385254008176    2.71973286885930
H         2.37278964922749    3.25603650741138    2.60033934036316
C         3.33746622756966    4.99639050491655    1.80188357979552
H         3.75550107654281    4.46903731123075    0.95847269582623
C         3.59379752232286    6.34706675408415    1.97326844531619
H         4.21001954303210    6.87237334558184    1.26005208923448
C         3.07324644020952    7.02398506086644    3.06582788378581
H         3.28359397592621    8.07381055650847    3.20310367098589
C         2.29538120977124    6.35079638243504    3.98810128032822
H         1.89558645020313    6.86518397515244    4.85281074286602
C         4.40218171423372    3.45028061339655    5.15814672916403

