56
CSD_code = JAHFUU | q = 0 | S = 0 | Stoichiometry = C30H19N3O3Ru | MND = 8
Ru        5.00775621052577    3.68102165000854   12.43312840731564
N         6.01369807660963    5.50584068520533   12.33932082628884
N         7.39303747332886    9.15338962393887   16.67678569007245
N         4.82916058176050    4.26836587532786   14.44410357701819
C         6.10568127148865    6.02067742652330   13.57089745226077
C         6.67888679627801    6.37719056097788   11.51207166879415
C         6.86108571555768    6.30896331944485   10.13587858397158
H         6.43756351819783    5.49118441228704    9.57119057118797
C         7.58143797979268    7.31525806602891    9.52507133085013
H         7.73390022042352    7.28395947193913    8.45597564815718
C         8.11846584221714    8.37719181163606   10.25589906036640
H         8.67629432578792    9.14199690159011    9.73642538764159
C         7.94524439096852    8.46694738360396   11.62184254442240
H         8.35203164102935    9.28562438138287   12.19510062805790
C         7.22127898245775    7.46786568763613   12.26188817515707
C         6.84162761306187    7.23808430024755   13.62248726313954
C         6.95820727477721    7.81586928677322   14.88144357599457
C         7.62893325313787    9.06726084489222   15.31982563113417
C         6.65552063675784    8.07729976642711   17.16738945593610
C         6.37590556087445    7.22626445198484   16.00713244859019
C         5.63364080104129    6.02263189977754   15.95961165001315
C         5.00023898078748    5.36604436906509   17.02788415398128
H         5.06265460992016    5.78234839193235   18.02100894314729
C         4.30798445266762    4.20374234645755   16.76844577377056
H         3.80587560050964    3.67680057854822   17.56453878792507
C         4.23776910427492    3.68258275423625   15.47154395725973
H         3.67966568344573    2.77675092715412   15.27341017138818
C         5.50709192356077    5.41202102979013   14.68356084177574
C         7.89839688701231   10.22378278295821   17.51595111546483
H         7.19010765569681   10.35094081123064   18.33857506695010
H         7.93461151125336   11.12822596079682   16.90346594518277
C         9.26872770142172    9.88166998508179   18.04217623541998
C        10.40205564450600   10.22273757963324   17.31604419135289
H        10.29547799107757   10.75486057448108   16.38217751792542
C        11.65797853919288    9.87618483584990   17.78237390829568
H        12.53598847081744   10.14783643574625   17.21478941382318
C        11.78949858561579    9.18297958808555   18.97385887883617
H        12.77048468539211    8.91535157680040   19.33877076091125
C        10.66126203192673    8.83060287442364   19.69529086389530
H        10.76042267902916    8.28546410314122   20.62264708206942
C         9.40457086237845    9.17633869443101   19.23053909268952
H         8.52158444438625    8.89496342333238   19.78547993958688
C         3.40375642561118    4.48283468395608   12.02084832129119
C         6.39346693588903    1.96121727382104   12.87555563896339
H         7.00879370119110    1.76482704945684   13.74453439098864
C         5.06870539991004    1.46044650941208   12.66948627197668
H         4.53791552334853    0.79572446918876   13.33757131877120
C         4.70676995211659    1.74306746484048   11.32872185831011
H         3.82318796688899    1.37801823794585   10.81948861247309
C         5.77837661149923    2.46064952626175   10.71950868625731
H         5.87239728693804    2.66892935187980    9.66263972347473
C         6.82722898303628    2.55619253285028   11.68050219441950
H         7.82139177138115    2.93642872042783   11.48538516246679
O         8.24628790463229    9.87533109320556   14.66989247616028
O         6.33407094464062    7.94388043039591   18.32616968767550
O         2.38454438196996    4.93513522555638   11.74129343874790

