31
CSD_code = JAHHAB | q = -1 | S = 0 | Stoichiometry = C6H18Br3NNiPSi(1-) | MND = 4
Ni        8.00566385409554    5.55020389094379   11.37089903645385
Br        7.98987731732542    4.09105469920580   13.07769978821328
Br        9.15666738514622    4.10723081790581    9.93989723493072
Br        7.87594837784774    7.43251606293697   12.78074283880813
P         5.74656088675423    5.91916814121412   10.04538487533914
Si        7.95044903693252    7.87512265935603    9.16532647000116
N         7.19668424098583    6.48798491181634    9.84630507499047
C         9.79301360009779    7.75300683427394    9.64122637406733
H        10.22704175530749    8.72738843285634    9.84631091152620
H        10.37551551165128    7.27455378915960    8.85866085619771
H         9.91055120321669    7.14664831891405   10.54408393965580
C         7.17465059681977    9.52436358856844    9.74452913605604
H         7.65090734627613   10.36087161693189    9.24220330888079
H         7.28826817200197    9.66438045318135   10.81435219047691
H         6.11211718053872    9.56335030912472    9.51517044610322
C         7.76864650290391    7.81346994895821    7.26488656793627
H         6.75469710685947    8.04497469691566    6.95287481689684
H         8.03018275399115    6.83889646156037    6.86731680646176
H         8.42690597192673    8.54691058012856    6.81200562553763
C         4.88263706614599    6.27562071367375   11.62563940690823
H         3.85110533052016    5.92900312185037   11.57049916974419
H         4.91031897790359    7.34848441604494   11.81808006955148
H         5.38838980781796    5.76687024198411   12.45094125502755
C         5.67748697490387    4.10007410276073    9.89112352719237
H         4.63932951446795    3.76799284510232    9.87973208499865
H         6.19474675059917    3.62636655666253   10.73122280818419
H         6.18041697264952    3.80509333322384    8.96944190927813
C         4.57759031561665    6.52503349957840    8.76535131563462
H         4.48566651463629    7.60575783095282    8.85230686687196
H         3.59792809579795    6.06638439825593    8.87618428242360
H         4.98653487826024    6.28452272596395    7.78620100565228

