63
CSD_code = JAHMIR | q = 0 | S = 0 | Stoichiometry = C26H26Cl2N6O2Zn | MND = 4
Zn        4.44054685398806    5.91642557688747    2.17954824998221
Cl        2.68929831252476    5.92273814949422    3.50612938781655
O        10.25892347779899   11.12007943510273    3.10858955365375
N         5.70281631620946    7.47319180555971    2.91935676275790
C         6.75182492725560    7.84060182257685    2.19198371848855
H         6.83216696929217    7.37372103958085    1.21933968611363
Cl        4.96391481029589    5.91097142194631    0.01347974767778
N         8.84358615581842   10.56373796891560    1.43663788287185
C         7.69026658213077    8.76137560170031    2.63223232558705
N         9.35745633690690   12.76319765628687    1.77940832252884
C         7.50660669643372    9.32750299536949    3.89122242825028
H         8.22380483628554   10.04247088350008    4.26671400166332
C         6.40509606040618    8.95182447050278    4.64085878539177
H         6.22831453025870    9.37320285940346    5.61765245867929
C         5.52705939770552    8.01640650910392    4.11805006507767
H         4.65055963903410    7.68929321576207    4.65920310818628
C         8.86238368112843    9.15752515112584    1.77237909238763
H         9.79244294059313    8.99223116524802    2.32598832297678
H         8.87350710155987    8.56819170414582    0.85225630472114
C         9.54492022111421   11.46992891598940    2.19345274750330
C         9.97735880317818   13.92633688702248    2.25103227017098
C        10.87190736637987   13.92998241527589    3.31616074551098
H        11.11573966679971   13.00457649904935    3.80945492160702
C        11.44405826783945   15.12045804272837    3.72658721455089
H        12.13975694957681   15.11314833591375    4.55250356587984
C        11.13652557109530   16.31170017215024    3.09223365196107
H        11.58889185061359   17.23600800552062    3.41818344033194
C        10.24415888242907   16.30926122834225    2.03326659056728
H         9.99617080881732   17.23155208669206    1.52895199988558
C         9.66743932583069   15.12624883233674    1.61370476799453
H         8.97171825373461   15.12810637998940    0.78509757745492
H         8.75246388337306   12.90993842811760    0.98364738196379
H         8.12826698886266   10.87330242535172    0.79913528482643
O        10.23797365768279    0.76108137139738    3.18708574867092
N         5.70873986099567    4.37364689088511    2.93312512307609
C         6.77669208560924    4.03149915792806    2.22104805301794
H         6.85508595286152    4.49314567282940    1.24582121963714
N         8.91644525984735    1.37214951418049    1.45747324509540
C         7.73433634803548    3.13942005197876    2.67850708068925
N         9.39166097343981   -0.84007639620084    1.77369096888798
C         7.55007480553070    2.57437605786931    3.93805317845068
H         8.28191351959255    1.88089686160020    4.32559977440570
C         6.42812574311509    2.92224334769551    4.67074488543044
H         6.25097581517193    2.50203695395003    5.64789484911590
C         5.53173952848750    3.83073377076735    4.13183048345358
H         4.64198898570379    4.13996322194435    4.66184919227085
C         8.92621984058076    2.76867874681692    1.83432450601724
H         9.84298726929778    2.91973789779943    2.41293371193862
H         8.95649534575485    3.38203452438784    0.93066575341319
C         9.56855309300157    0.44076846359238    2.22831927409900
C         9.97839797673864   -2.01977796650431    2.24667224927140
C        10.81735906129098   -2.05746340150217    3.35550044270291
H        11.04214993386627   -1.14681751903076    3.88401657331810
C        11.35946962907679   -3.26247319926596    3.76418583703470
H        12.01202482169997   -3.28149354528019    4.62443939631836
C        11.07633487512246   -4.43491171811343    3.08504560681955
H        11.50513001950215   -5.37069087036522    3.40991627127464
C        10.23922223427652   -4.39864372608936    1.98244583262356
H        10.01122329906152   -5.30593348340407    1.44270787915173
C         9.69300615508026   -3.20080495716199    1.56417348037259
H         9.04066353676952   -3.17616593976591    0.70132620129455
H         8.82788006973170   -0.96164295290460    0.94407120671473
H         8.22057783782505    1.08424508298320    0.78888961029416

