135
CSD_code = JAHNAI | q = 0 | S = 0 | Stoichiometry = C45H84FeO3P2 | MND = 5
Fe       13.24209031664942    7.12041357085178   -3.85297265660953
P        15.01484330010983    7.18039885663507   -2.64087525817064
O        13.24202866987116    4.18911606573032   -3.85298442078696
C        13.24223681323929    5.34676298743273   -3.85330108954624
O        11.79941114711271    8.54325756649386   -1.73985754747472
C        12.36720311504892    7.97847862755096   -2.57541678531423
C        15.14608373939181    5.99088170350593   -1.23376738253719
H        15.34055810149164    5.01220852822838   -1.68432632092509
H        16.00870910720578    6.26960439515003   -0.61730874309624
C        13.87348234614602    5.92504368339861   -0.39787571872091
H        13.71653649502172    6.88226534912629    0.10620322934851
H        13.02618960360141    5.76763942171818   -1.07331620959093
C        13.89337625460825    4.80660467965631    0.64408433183778
H        14.72398913961019    4.96108587641266    1.33751245268121
H        12.96979919668545    4.87590428289409    1.22061135191010
C        13.99777110398276    3.41438825964147    0.01719981358737
H        15.04179526984618    3.20423691075904   -0.22682288633402
H        13.43723732751420    3.39583922396072   -0.91823625423980
C        13.49222799519958    2.29701646009443    0.93288054955976
H        13.76970556521542    1.33739165202928    0.48949976899158
H        14.00172733621780    2.37354235812608    1.89708694979376
C        11.98061592061066    2.29732412394875    1.17352201371687
H        11.67929732226599    3.22785556443052    1.65925682611763
H        11.74609267590795    1.48405383626471    1.86555432773836
C        11.16308107984049    2.11403099127136   -0.10319398363841
H        11.35095749142695    2.95315668583427   -0.77181858914096
H        11.48104632477785    1.20022626652271   -0.61097119571984
C         9.66695354268210    2.03767124304562    0.19030523148692
H         9.35214367417116    2.95015115806375    0.70028952105447
H         9.48052620046723    1.20526173393314    0.87439176577727
C         8.81293548851853    1.82827607079073   -1.06212160541037
H         7.76529106166521    1.75905335875540   -0.75721143690177
H         9.08628775674453    0.87294910699061   -1.51764364594164
C         8.94596597152346    2.92350834555720   -2.12298189977711
H         9.96747869930335    2.93707634957307   -2.50309738453549
H         8.28960117708410    2.66817613968884   -2.95956128835643
C         8.56676424931767    4.30936862520205   -1.60518377472194
H         9.28660083537179    4.63094973129029   -0.85082098627085
H         7.58576882626676    4.24976328616193   -1.12663835842769
C         8.51179480003085    5.37072044620130   -2.70472393850014
H         7.80755477263063    5.05876992169575   -3.48057776040953
H         8.13491187559112    6.30080168763867   -2.27058027997185
C         9.87594863544655    5.64429393959758   -3.33546369920119
H        10.20368112198476    4.76988582962481   -3.90145975737337
H        10.61335071742625    5.82289641017936   -2.54759086271025
C        16.64273818547573    6.86276028125670   -3.45441715860314
H        16.89358807585447    7.75466460846803   -4.03903527251732
H        17.39777697909455    6.73926489224893   -2.66854560528171
C        15.39835667931480    8.76265208746967   -1.76496357225438
H        14.64217835243934    8.86923882107161   -0.97829445167086
H        16.38220820808813    8.67298508884758   -1.29024021298231
C        15.33870164800638    9.97122516078711   -2.69214851209488
H        16.18092032651306    9.95088841389371   -3.38789716667749
H        14.42067075914976    9.90354855308606   -3.28541641816480
C        15.33933265600738   11.29559619654976   -1.93272690588732
H        14.48599201641829   11.31470387087033   -1.24978425467945
H        16.24782598165445   11.37904131082630   -1.33067766865220
C        15.24253909411990   12.48091281802626   -2.89133571682456
H        16.14109208157966   12.52163066703593   -3.51166813917141
H        14.39129313111964   12.31572801678615   -3.55357580557676
C        15.07086053772771   13.80736630735934   -2.15561103673504
H        15.89909886235261   13.93126110485976   -1.45270100094619
H        14.15170357863766   13.77634676147598   -1.56766680480877
C        15.04823585204297   15.02213860164838   -3.08701481359559
H        14.93508426121502   15.92230324856212   -2.47729422172131
H        16.01346388449297   15.08913484732288   -3.59590292670985
C        13.94597626229193   14.99980722005678   -4.14846942653649
H        14.08198768318802   14.12560170210653   -4.78431439932064
H        14.06081703025861   15.88387045622500   -4.78142482166594
C         9.84139735881414    6.86275196432244   -4.25169427950610
P        11.46930110682507    7.18042079973776   -5.06522586821306
C        14.11445732617376    7.97917424344009   -5.13177996156385
O        14.68675696364126    8.54254698568291   -5.96519493651034
C        11.33803567877389    5.99088304585183   -6.47231770614508
H        11.14355865017323    5.01220542477556   -6.02176987127765
H        10.47540126152564    6.26961732939315   -7.08875747076148
C        12.61061300177809    5.92504285496327   -7.30824575942541
H        12.76754745156986    6.88226469042231   -7.81232420541480
H        13.45791658871178    5.76764738087303   -6.63281936780855
C        12.59070645523941    4.80660597130872   -8.35020831607799
H        11.76008704472317    4.96108629429426   -9.04362898263305
H        13.51427797155888    4.87590712951130   -8.92674385168224
C        12.48631681042288    3.41438921664583   -7.72332410157385
H        11.44229377676067    3.20423490200214   -7.47929869489749
H        13.04685269310718    3.39584358036194   -6.78788935976944
C        12.99186203278248    2.29701795442852   -8.63900443511140
H        12.71438662543345    1.33739250473665   -8.19562339827485
H        12.48236370934687    2.37354219389088   -9.60321146334995
C        14.50347433482843    2.29732911076215   -8.87964454674060
H        14.80479081270402    3.22786106744583   -9.36537940460908
H        14.73800005093576    1.48405854218920   -9.57167577734071
C        15.32100949203643    2.11403858067196   -7.60292850557660
H        15.13313202347473    2.95316530129890   -6.93430554531521
H        15.00304521154299    1.20023415514036   -7.09514997490071
C        16.81713714234782    2.03767885199110   -7.89642765646070
H        17.13194825172006    2.95016060612268   -8.40640780828388
H        17.00356408816370    1.20527213384778   -8.58051788269640
C        17.67115372364576    1.82827762556376   -6.64400075296164
H        18.71879826283370    1.75905073494936   -6.94891011799208
H        17.39779682293296    0.87295045828385   -6.18848159126503
C        17.53812544427894    2.92350737139646   -5.58313729120572
H        16.51661228297020    2.93707559029149   -5.20302308250597
H        18.19448965304563    2.66817061536935   -4.74655848864168
C        17.91732979778165    4.30936785456859   -6.10093413242764
H        17.19749782787638    4.63094877144930   -6.85530104005551
H        18.89832855940110    4.24976103257984   -6.57947318229717
C        17.97229597009600    5.37072176190653   -5.00139567727692
H        18.67652810330775    5.05876609814044   -4.22553642818647
H        18.34919129731731    6.30079870584032   -5.43553767126969
C        16.60814466614743    5.64431358183586   -4.37065931117147
H        16.28040183754505    4.76990533720959   -3.80466889688893
H        15.87074081377979    5.82293680111151   -5.15852810030168
C        12.53810226898888   14.99980969335393   -3.55765726526595
C        11.43584248436104   15.02213816075843   -4.61911174700440
C        11.41321942267614   13.80736777838514   -5.55051908229188
C        11.24154572659145   12.48091188023866   -4.81479622024111
C        11.14474824715516   11.29559442300703   -5.77340523486621
C        11.14537436461653    9.97122639035103   -5.01397848395649
C        11.08572670564751    8.76265294003534   -5.94116688856310
H        11.84189548908930    8.86924703726339   -6.72784282725392
H        10.10187201227674    8.67296271906143   -6.41587932114163
H        10.30315877483798    9.95089063128321   -4.31822669241323
H        12.06340426419353    9.90355443547118   -4.42070949759320
H        11.99808976981024   11.31469624564178   -6.45634683170873
H        10.23625493712063   11.37904027429465   -6.37545399120087
H        10.34299632620234   12.52162922661294   -4.19445852139263
H        12.09279521334522   12.31572901989184   -4.15255998646025
H        10.58497874195728   13.93126305187504   -6.25342610507085
H        12.33237441325209   13.77635396715953   -6.13846684324836
H        11.54899109184410   15.92230503024138   -5.22882956918506
H        10.47061501705653   15.08913139341786   -4.11022218177609
H        12.40208835568695   14.12560668301733   -2.92180934629581
H        12.42326404604793   15.88387567888872   -2.92470501207545
H         9.59052772160764    7.75464877608584   -3.66707515267723
H         9.08637133569252    6.73926705855646   -5.03757840211647

