53
CSD_code = JAHNUE | q = 1 | S = 0 | Stoichiometry = C14H29N6OS2Zn(1+) | MND = 5
Zn        4.68104591599121    8.21843434652828    6.52634807096446
C         4.32888770911518   11.42325457991255    6.31365491053387
C         7.32251094583441    9.51559764965906    6.11058893846998
C         7.58930440009012    8.10535871147981    6.28666269403483
C         5.52833593887754    5.42339857650406    7.07172038350648
C         8.41914410780032   10.48721514761512    5.80357951553599
H         8.16558795859682   11.08137606246711    4.92494706933387
H         9.35531286197673    9.97822002568057    5.61069100042200
H         8.56795906283721   11.16424483143107    6.64598617403306
C         8.96748686980929    7.53837608409903    6.17497052549320
H         9.63852272159563    8.00061864910636    6.89669886546277
H         9.37280548722482    7.69030246548294    5.17579904514082
H         8.91738341385708    6.47145316408267    6.37387345990505
C         2.62363864408057   13.21878274061543    6.40488084967600
H         1.94006410683410   12.43397327880710    6.06898571452990
C         2.36575473829260   13.51586430306159    7.87962953587089
H         2.48832488552078   12.61411369070299    8.47333639411338
H         1.34970201506259   13.87480890986780    8.00776711585358
H         3.05053458621486   14.27792641545552    8.24449924048271
C         2.46570154148842   14.46015991961828    5.53880975474734
H         3.13351919438569   15.25138087594037    5.87360223525097
H         1.44642725655545   14.82650871732477    5.60821005528139
H         2.67716065692419   14.23487323308170    4.49651224431974
C         6.84799228879745    3.33339502775989    7.20174209186852
H         7.68040903681206    4.02196294294297    7.36991165379587
C         6.96393193989650    2.72651757473406    5.80389833163017
H         6.12561210073033    2.06269273273585    5.60720493798355
H         7.88380625571721    2.15548822516021    5.72295548869670
H         6.97357968724689    3.51208568272321    5.05267211523441
C         6.82369831464851    2.25840550794367    8.28019572157515
H         6.71527768216350    2.70576184728669    9.26477347177599
H         7.74963055318983    1.69162644378219    8.25951569822071
H         5.99743177558778    1.57076613803131    8.11423644464105
C         4.65781070080910    6.75153979682342    3.63565534590612
H         5.70956428854766    6.57593797888920    3.87080804948524
H         4.06630783150789    5.90734490688030    4.00981848499346
C         4.45814751194937    6.92224157589688    2.14022083291148
H         3.40701689212324    7.08454035955949    1.90949547516646
H         4.78745051761259    6.02700326511863    1.62185128513134
H         5.03373258751256    7.76844206116278    1.77302898759628
H         4.69695738353060   13.41006864574016    6.14588822425592
H         6.31050344003145   11.89848185287449    6.00529228509320
H         4.77493145762258    3.62187756596665    7.50426268273980
H         3.41311628710980    8.19383505012604    4.04008448727481
N         3.97719563598798   12.70356465372602    6.22961531833749
N         5.65018967614382   11.13872352371317    6.15912845837850
N         6.08857376834442    9.87258814055535    6.25127009935107
N         6.55064054377307    7.37127339444161    6.56317040758339
N         6.64174452329776    6.07698562579236    6.76493982305555
N         5.63030153056970    4.11874282945570    7.29694574723631
O         4.29551328187729    7.94177490704535    4.34624137396433
S         3.17863993744720   10.22164616862409    6.57110325074100
S         3.93697755047099    6.08314319594175    7.22391963239650

