34
CSD_code = JAHQEO | q = 0 | S = 0 | Stoichiometry = C10H21AuNP | MND = 2
Au        3.70743493632825    0.54613841703002   -0.01323887577246
P         5.14456666782559    2.30384759824652    0.01446432509272
N         1.79507756485601   -1.89397379237959   -0.04843916116429
C         2.50482064028195   -0.98722788360024   -0.03378742636196
C         6.91955601437900    1.74823910653921    0.02878930433606
H         7.58602207069589    2.61820239214007    0.06136678122632
C         7.20935923209739    0.93264219752482   -1.22986767609668
H         7.24543806039657    1.55773070439126   -2.11953659060511
H         6.44558824797827    0.16642206929975   -1.37050787435436
H         8.17286224043033    0.43457299834749   -1.13513901958316
C         7.13695308873873    0.88147690886426    1.26822759017919
H         7.02310531399079    1.45082603647619    2.18817724545906
H         8.13946590494464    0.45669113484303    1.25780742844368
H         6.42078639034884    0.05894431978030    1.28049848127961
C         4.98901257967156    3.32732707841434    1.56578897203715
H         4.98413783645760    2.54449080596262    2.34074004715230
C         6.10202833471451    4.31702495533569    1.89700438517562
H         7.07915131045351    3.84059090619335    1.90934084710493
H         5.92039039778907    4.72986197820405    2.88865076996166
H         6.12761985608346    5.14268517396374    1.19275646164777
C         3.61860335285975    4.00074794266455    1.59276738757798
H         2.84344612846100    3.31045263871568    1.25760112155168
H         3.60447525305531    4.88103972639052    0.95398129955736
H         3.37564500792066    4.31840619902776    2.60542966600404
C         5.03284347711087    3.37490559287081   -1.50717748807524
H         5.41873954807811    2.69942467547858   -2.28485276766861
C         5.86238564512832    4.65393912989680   -1.51675354762758
H         6.88601698493859    4.47190799189497   -1.19623320077192
H         5.41832977426514    5.40915336363054   -0.87270863942267
H         5.89228289087311    5.05819695555759   -2.52783121788176
C         3.56995932415173    3.65349309900758   -1.84954649822507
H         2.97937083263286    2.73911307800527   -1.78190479295842
H         3.49356659305021    4.03274119460530   -2.86732966645307
H         3.13485849900986    4.39296530668779   -1.18253767076540

