59
CSD_code = JAHRAM | q = 1 | S = 0 | Stoichiometry = C25H29ClN2ORh(1+) | MND = 8
Rh        5.99840132861844    4.36968307230312    9.55113920575027
Cl        8.03457945395225    5.03692881578910    8.67560086144276
O         5.34154797817049    3.66460974520491    5.56096321362138
N         6.58451003919518    2.55466296948555    8.72858520078869
N         5.26035960190553    4.50468391641488    7.62124116839310
C         4.58706468147058    5.67438057807934   10.62581570584606
C         4.31288103033314    4.30123089240119   10.97059782051626
C         5.47235149331915    3.77300797296236   11.62475806576506
C         6.49078104110161    4.77920700729822   11.61367168103336
C         5.92384121976243    5.97313892167764   11.02159352741161
C         3.57635791048405    6.65716798008814   10.13580649186838
H         3.14269336230416    7.16396798581109   10.99970496931770
H         2.76966345134365    6.16431366698903    9.59981930857833
H         4.01664939144487    7.41305232410544    9.48987720241132
C         2.97784520067893    3.63602921041615   10.91138549067311
H         2.41069085050366    3.89242434392421   11.80785446269923
H         3.07630221786690    2.55414338213390   10.87259585729131
H         2.40539628733004    3.96485471599271   10.04756650429617
C         5.52892084718079    2.45371412548998   12.31906180770902
H         6.54381240705778    2.19239491308597   12.60650106944575
H         5.11288752049857    1.65434745581568   11.70800788736571
H         4.93058375225969    2.51904936953719   13.22922417943106
C         7.81048288788033    4.74436092886923   12.31054408465990
H         7.73426728966464    5.29826952242735   13.24724284485315
H         8.57855798037158    5.21687878319517   11.70156361927776
H         8.12346175914704    3.72882919552291   12.53759735057478
C         6.58789567329228    7.30848971937713   11.01806482940825
H         5.97343679904375    8.05332887443505   10.52062991901206
H         7.55892715912592    7.26061672824452   10.52685969671755
H         6.75258255744879    7.62477198315408   12.04848405441623
C         7.32907505015591    1.63385211339667    9.33302364051817
H         7.49346708235370    1.75822430585881   10.39491222632313
C         7.88726105835229    0.56455772772460    8.65211535976989
H         8.48353499160236   -0.15664576760469    9.18732342230717
C         7.67595936878717    0.44193251126220    7.28478868474833
H         8.10495877185105   -0.37834771619057    6.73146349046159
C         6.91598162156648    1.40381771151299    6.64357299703939
H         6.73193263873066    1.37871514805631    5.58163232193627
C         6.39092381720654    2.44586770507293    7.39905210563526
C         5.64299122579210    3.55334505746653    6.84139196833028
C         4.63432043068402    4.90480401313215    5.40805951703861
H         3.62590826089655    4.67455613978331    5.05497847494520
H         5.15560427707474    5.50112210201784    4.65631606662845
C         4.65408303652203    5.55335251855072    6.81512091609147
H         3.64321346183226    5.74886544875937    7.18764005496541
C         5.49000884200482    6.83922760148222    6.91788595903214
H         5.99907761008124    6.83375521690060    7.88776248154715
H         6.27484694561756    6.82163504112768    6.15651048416935
C         4.68094694388705    8.10200921448074    6.78908996388782
C         5.01508455628560    9.20903467078083    7.56068412654289
H         5.85644597643157    9.15093403013284    8.23714190576233
C         4.29932525557151   10.38832854333301    7.45481009740937
H         4.57518748383339   11.23962659161920    8.05819815551099
C         3.23325655881174   10.47508692727658    6.57590636104966
H         2.67259086003105   11.39291438677315    6.49217896761599
C         2.89585108694506    9.38037898592975    5.79911879286847
H         2.07216871846209    9.44321709632477    5.10447182233529
C         3.61548262824681    8.20225761075562    5.90310139954516
H         3.34747826742075    7.36023596390844    5.28159015553449

