69
CSD_code = JAHSOA | q = -1 | S = 0 | Stoichiometry = C35H21IrN11O(1-) | MND = 6
Ir       11.81282101189587   13.54470254862455   12.22216809084466
C        13.49425419789520   12.17085477029728   11.95643592457327
H        13.07745501930946   11.16812522723312   12.07597862568284
H        13.89511505014135   12.29416939243197   10.94939593128123
C        14.51216001104198   12.41315926197982   12.97291256159508
C        15.66576646208839   13.32455104347560   12.56436974450543
H        16.03216374576152   13.87431992281167   13.42935761429732
H        15.37800666762075   14.01800875136063   11.77929518544905
H        16.47479179113774   12.69455522435577   12.19290177359334
O        14.49705317272195   11.91714293468681   14.09179866205092
N        10.16387664194396   14.78391385486278   12.46810559952549
N        10.03281390285054   15.92457313743321   12.25233369455150
N         9.77808552724538   17.02127838084975   12.08528750499850
N        12.03400431942464   14.21688591637371   10.37358431491885
N        13.48923625819042   16.08417105460311   10.80072979859400
N        12.98236030999444   14.99568758385683   12.88463463463237
N        12.94900059519058   14.48495042787584   15.23241357439455
N        11.60136563366188   12.87634777542914   14.06275771301368
N        10.14941782578274   11.00881488149105   13.63874113910258
N        10.62262391595577   12.11763527355280   11.55768370537704
N        10.64186339684102   12.63807643801837    9.20936978777289
C        12.78343244533681   15.29503477565384   10.01731483745386
C        13.56493825895622   15.94915867647311   12.10763151689348
C        14.33196938232264   16.83727162014277   12.95897015398952
C        15.11212041586090   17.95051860967923   12.69603513300077
H        15.23127918913148   18.30748423247221   11.68492366492230
C        15.72362652173028   18.57865267113339   13.76724454392742
H        16.33983068466523   19.45051549728312   13.59468922330512
C        15.56142865992607   18.11012977888683   15.06915987773739
H        16.05540515897959   18.62785560799166   15.88005069284946
C        14.78138748283327   16.99929122273297   15.34094174428099
H        14.64936621752182   16.62874656945826   16.34542585550167
C        14.16622671283438   16.36485008177370   14.27523448406352
C        13.30847030109322   15.19872244054731   14.18744921837248
C        12.18822196550838   13.41492184169698   15.16196215291280
C        11.82399733655275   12.62094910607476   16.32139034125874
C        12.14479032569569   12.71788628359087   17.66356238543811
H        12.78750942038352   13.50932956974463   18.01568356567068
C        11.61836081091194   11.76902280354083   18.52446828228937
H        11.85121514730654   11.81668931428795   19.57960478203568
C        10.79376152317825   10.74891792836715   18.05811887031213
H        10.40219535529771   10.02528736452570   18.76025674272922
C        10.47025298123816   10.64399551659729   16.71549360571177
H         9.83444498215231    9.85452474770825   16.34563429050020
C        10.99212447201357   11.58878278044932   15.84932094520930
C        10.87181653326944   11.78544503714250   14.41601985530522
C        10.03291480953008   11.17317259632441   12.33678990876491
C         9.22934511905900   10.31108882687535   11.49255451424433
C         8.43215398660367    9.21039160530896   11.75997933531787
H         8.32445762156822    8.84801420095201   12.77044519631798
C         7.78835731594931    8.60297617394068   10.69605466650384
H         7.15870483584561    7.74167359864972   10.87303747812081
C         7.93419894692491    9.08007196316218    9.39502502569591
H         7.41483076139006    8.57907388110831    8.58947647210267
C         8.72825772560482   10.17933633296524    9.11816820753923
H         8.84566169297632   10.55559359695324    8.11376979310072
C         9.37656545409213   10.79380293389988   10.17667851111764
C        10.26582710566734   11.93595144418950   10.25822895110756
C        11.44644056891427   13.67818062990698    9.27064148151496
C        11.84706471019791   14.44717048619768    8.10914344328523
C        11.55047044236746   14.33711962522760    6.76068328790788
H        10.89856546370720   13.55308170141801    6.40791329626718
C        12.11313615675061   15.26019607335372    5.89676846789339
H        11.90019950703342   15.20078506985191    4.83810780174210
C        12.95031231678613   16.27135069238023    6.36427019435576
H        13.36943731075507   16.97548663022964    5.65852381153004
C        13.25078790066484   16.39039648624044    7.70977377883854
H        13.89460579217713   17.17241942482137    8.08099952839429
C        12.69399671403520   15.46925814648423    8.58152450191306

