33
CSD_code = JAHTUI | q = 0 | S = 0 | Stoichiometry = C13H13Cl2N2O2Re | MND = 6
Re        3.25873386912827    4.27540233459049   14.11148592196353
Cl        2.72240819915833    5.91692989235714   15.61090237812146
Cl        2.70667643989139    5.64871828084105   12.37803907474568
O         1.85411467602287    3.40645214642121   14.20873474991946
O         5.01394361916313    4.76032881130340   14.11309309391860
N         4.18996140029313    2.66640084355658   15.69460070599725
N         4.22792093314746    2.60615023710332   12.83371179320355
C         6.22799834462843    4.27398302721322   14.22279372103450
C         7.21785883061289    4.57914899856738   13.28193555203791
H         6.97828420695049    5.27659965490948   12.49315319064288
C         8.46218498770992    3.98961280886432   13.36773283904087
H         9.21713495161616    4.23159336548547   12.63494656036886
C         8.74466244279721    3.09188884921616   14.38466247683194
H         9.71829644342094    2.63143621682948   14.44822927767662
C         7.77533643571846    2.79242615222017   15.32715406668744
H         7.99825167013217    2.10105579878224   16.12806168737738
C         6.51944066708568    3.36900541314184   15.26562596364712
C         5.45973091973520    3.08562133578272   16.29791302218698
H         5.82807729561312    2.32109212292906   16.99848914906486
H         5.25401919717671    4.00310652933603   16.86120871958809
C         4.27733800969915    1.41563854222090   14.93922130208469
H         3.25901783488051    1.02849065284732   14.82990606163890
H         4.89459477173687    0.67339136351992   15.46340086620006
C         4.81691086224055    1.64679522277359   13.55007396317959
C         5.85105120968103    0.88893095422027   13.01676854907741
H         6.32133139670555    0.12256798851625   13.61264540453684
C         6.27462656786684    1.14072128282835   11.72222281382848
H         7.08527583348776    0.57108675373299   11.29431785209444
C         5.64318467080462    2.13440199226352   10.99049483856372
H         5.93722980049487    2.35726221156127    9.97806152452744
C         4.62185258024552    2.84876059581954   11.59342411766293
H         4.09196900835766    3.64326716320145   11.08397501061269
H         3.48498192379885    2.58573245704590   16.42231375193921

