43
CSD_code = JAHTAO | q = 0 | S = 0 | Stoichiometry = C16H21Cl2FeN3 | MND = 5
Fe        0.70048883678935   12.88907944228149    3.86499703503268
Cl       -0.25838494239990   14.46319265911729    5.03861476877907
Cl        2.63869195011889   13.84325992480351    3.89097240408200
N         0.06865699792169   13.58139552392328    2.25261455722417
N        -1.00886187440767   11.82358960368762    3.83747879007579
H        -0.85864242270893   10.96625468078689    3.30672307643689
N         1.02851163263006   11.87168268608508    5.69599696557075
H         0.89284984070196   12.66189322756122    6.33030473892783
C         0.77047567726075   14.24114381734074    1.32384450219545
H         1.80326350349809   14.42569810700770    1.57919377125665
C         0.22174190326041   14.68179493857988    0.13665892272356
H         0.83602622928591   15.21698893523114   -0.56924739590420
C        -1.11909263533825   14.43620785037595   -0.12253494163152
H        -1.58203205004797   14.76938174845698   -1.03773364103955
C        -1.85625719268427   13.75632823963180    0.83866639214043
H        -2.90525489541650   13.55038422151532    0.68943964406999
C        -1.24214848596815   13.35570921897504    2.00806259424095
C        -1.97354064456645   12.66175694642935    3.12537084554867
H        -2.30576146850430   13.43003494540848    3.83014753503120
H        -2.84351231603408   12.10484430941805    2.75724154608413
C        -1.34325264835382   11.48611300687068    5.21862362850167
H        -2.16982608447588   10.76760054644893    5.29047812122553
H        -1.62125584640128   12.41966357223838    5.71286137485262
C        -0.08474147134993   10.92810194701408    5.88541078737100
H        -0.27841638570439   10.74684554369508    6.94995098099727
H         0.18938844064310    9.97187142526654    5.43167783822443
C         2.31993746800402   11.29851907556650    5.91939513802431
C         2.99950168614721   11.55168193751894    7.11345385890366
C         4.24351785001448   10.97008105783093    7.31227949867263
H         4.77735070203923   11.16326613720012    8.23105055406709
C         4.80534222659323   10.15532574785914    6.34790462300132
H         5.77202229351757    9.70528998772400    6.51585082330564
C         4.14175351271542    9.94325425863901    5.15381816022233
H         4.60073940798339    9.33905750529230    4.38500385634690
C         2.90099704656514   10.51690424775941    4.91725844639413
C         2.41260188552951   12.46688388811403    8.14750615942549
H         1.44962802418184   12.10387358378928    8.50808887850935
H         2.27337946140867   13.46556250959617    7.73168818718405
H         3.08276196463496   12.54978726801480    8.99902572213455
C         2.24273751403449   10.34307568779146    3.57683664309349
H         1.39055646917481    9.66402297224029    3.62203223983921
H         2.95723364907662    9.93583296698497    2.86647675885727
H         1.90822519063482   11.31696409991897    3.18821560999021

