31
CSD_code = JAHVUK | q = 0 | S = 0 | Stoichiometry = C11H9N4O6V | MND = 7
V         3.38426657269405    4.91836443242452    7.49449288487725
O         3.08792730407010    5.15873660926910    8.97315479240558
O         2.00604366269155    4.07719304226359    6.82085567690882
O         2.92515023368660    3.20989936120948    7.16034547919356
O         4.66500823079632    6.23929311069023    7.18417175699762
O         5.17712778608103    8.13099636358548    6.12756074355625
O         3.92925962559353    4.57193204649222    5.22487781749046
N         2.19440102800397    6.50168859099137    6.93848867214783
N         0.92529153837348    8.74537374087173    5.96671166768090
N         5.12773920353362    3.92955192598359    7.70821190741870
N         4.19628319104689    2.38208651797712    4.70355407672920
C         4.39354326711570    7.31480034012109    6.56061013424362
C         2.88763557792927    7.51428879114275    6.44076167823533
C         2.24058812732100    8.64480622485278    5.94092215464361
C         0.24778987787687    7.73879109175595    6.49381428708198
C         0.87460057145370    6.59379240032967    6.98237620865766
C         4.38876664465607    3.46974497000935    5.50084132420047
C         5.43461146304418    3.31548624519563    6.57305464575338
C         6.64037590641364    2.64579819471851    6.40629967438539
C         7.53277621289176    2.63020422812530    7.46802583349941
C         7.19043038256282    3.27337501900133    8.64826680967406
C         5.96497869370211    3.92183624303858    8.72718379404625
H         2.80563321003297    9.46476951345131    5.52034439754692
H        -0.82727347113735    7.84848956816145    6.52363005351690
H         0.33455550092696    5.75421831146432    7.40400626368850
H         3.42377425000851    2.45331614857415    4.05654302819261
H         4.36329444109375    1.46580064159632    5.08587197950941
H         6.87358480910083    2.16878719989061    5.46679181383136
H         8.48188031822557    2.12410650301393    7.37278700330558
H         7.86102603328094    3.27606057782553    9.49279815671088
H         5.63032980693466    4.44621204597239    9.61504528386893

