46
CSD_code = JAHWUL | q = 0 | S = 0 | Stoichiometry = C17H26ClNPt | MND = 5
Pt        2.19502435092754    1.61846622719735    2.75352384175241
Cl        0.82950138272258    2.15398840835599    0.85966121850549
N         1.44803275473219   -0.35530516228007    2.63917237381344
C         2.42835091371978    3.57959527139096    3.56396115510292
H         2.81400458545321    3.46540601041227    4.57926358782725
C         3.31221244603625    3.43237182747256    2.48949728266118
H         4.35072637102031    3.17357023635606    2.71472262613400
C         3.18532499966912    4.21671181977873    1.21360351789062
H         2.14396948853631    4.41373060571985    0.97406866167225
H         3.61792418716486    3.65725956751488    0.38109503284437
C         3.94105779144636    5.54547112157810    1.36033367294154
H         3.73909540730903    6.14942220102951    0.47342663354743
H         5.01581671341033    5.34781415755093    1.38748061553550
C         3.57169291685750    6.34643981538483    2.61089355090188
H         3.91288617624856    5.81232619014218    3.49856062497665
H         4.13164662320048    7.28372838574419    2.56874589397178
C         2.07479652293826    6.65966056882183    2.75278421061830
H         1.57194578550099    6.50913045171611    1.79698583423967
H         1.95904348080298    7.71523507775961    3.00982135381306
C         1.35622873259999    5.85114335568140    3.83557577150414
H         1.90836043708898    5.93356580954942    4.77504848255886
H         0.37133931360468    6.29694150128521    3.99309551068443
C         1.14741245569032    4.36834874388611    3.49520011482260
H         0.69368566463977    4.28916048890866    2.50746385233148
H         0.44570106228895    3.94692696744748    4.22286558389235
C         3.36298639595869    0.80453342034812    4.20022565327887
C         4.51725316026823    1.30004208841342    4.79956163955630
H         4.84914678730714    2.31144422626670    4.61158153620707
C         5.27667315276292    0.52701830610684    5.66509076440917
H         6.16490021440014    0.94675348776677    6.11531475398107
C         4.90563653597076   -0.77316712465339    5.95174023140241
H         5.49950309217098   -1.37800680931392    6.62075974222862
C         3.76212047376637   -1.29269612205492    5.37256940885422
H         3.45458607612579   -2.30663505298977    5.58969227173766
C         3.00282116107737   -0.51347583461523    4.51378266177169
C         1.72649363346002   -1.03572537488987    3.91580877045659
H         0.90366923614148   -0.81725187302776    4.60684538258924
H         1.75903973880235   -2.12495555804688    3.76734699514407
C         0.03628666461583   -0.53010501866604    2.29675891437269
H        -0.17339907155455   -0.05539744153505    1.33960598495971
H        -0.58876120692816   -0.05824454076462    3.05551664517899
H        -0.21464774329657   -1.59577902245830    2.23401573708174
C         2.27785324666198   -0.93233793867297    1.57675032633650
H         3.33399175880195   -0.87091198845943    1.85147156061650
H         2.11459496730656   -0.38191900693732    0.64834060783089
H         2.01697116256059   -1.98589247021946    1.41166940744839

