59
CSD_code = JAHWOE | q = 0 | S = 0 | Stoichiometry = C30H22MoO4S2 | MND = 6
Mo        2.71222789130794   -0.32099818886827    4.57180768568600
S         4.65349417466467   -0.80716038187429    6.11821730091368
S         0.80257180755863   -0.56622385847630    2.85040234280041
O         1.99215810064112    0.77071210171872    5.56327474931965
O         3.64480251578495    0.50636758483573    3.50683753626270
O         3.46475790708236   -2.03008829446065    3.69248730710863
O         1.73675914838493   -1.78683463951066    5.38260243340641
C         5.92997525423122   -1.17700153270447    5.03625605339624
C         5.79865904444387   -1.70925192566774    3.76511665525456
C         4.60547931302945   -2.12787911995801    3.14917571181344
C         0.14036038460305   -2.13616613795385    2.96598031693919
C         0.39157672647821   -3.07825501417320    3.95549384098423
C         1.16647925080971   -2.88587901211100    5.10996273042420
C         7.27431588272964   -0.93293880711558    5.57178035596446
C         7.51166575571651    0.19056472058501    6.36414790681549
C         8.77535358131768    0.44265293867775    6.86190782388855
C         9.81835690787842   -0.42778822322462    6.58904612216864
C         9.59060373202705   -1.55381750135123    5.81421853093219
C         8.33111044815666   -1.80457033831661    5.30409825604981
C         4.65528244812237   -2.73098989806249    1.79991344884733
C         5.73648752952477   -3.47974738736531    1.33769425092827
C         5.70881942511704   -4.02374661391095    0.06704897395621
C         4.61166358504096   -3.82576264913939   -0.75659470767645
C         3.53142609467676   -3.08503729431268   -0.30393912776738
C         3.55027215204248   -2.54703853933009    0.96762482213659
C        -0.78449934557692   -2.49778984000090    1.88051174531315
C        -0.54430697685834   -2.07069347370680    0.57467593436357
C        -1.40515159527487   -2.41785706801441   -0.44819193784818
C        -2.52847170241687   -3.18495909526651   -0.18422628495125
C        -2.78766903718847   -3.59892384783151    1.11195618053921
C        -1.92250161199905   -3.26380538157167    2.13650493967110
C         1.35074931096956   -3.99779454131325    6.06952151487376
C         2.52737729189887   -4.01957420735454    6.82103313290552
C         2.75687035619701   -5.03024882556804    7.73392125866061
C         1.80849694731710   -6.02337030996770    7.92035942533128
C         0.63038089373595   -6.00062993429448    7.19050744126141
C         0.39981872852133   -4.99797912633202    6.26722011354705
H         6.70366125108999   -1.80203889847841    3.18218889731968
H        -0.03223045698706   -4.06103621167914    3.80917723453479
H         6.69573954016685    0.86860824411405    6.56369809537134
H         8.94835783141961    1.32095714160875    7.46524130957808
H        10.80530465216732   -0.23217381198361    6.98090666539400
H        10.39836540948915   -2.24091017846789    5.60930530998789
H         8.15567824587174   -2.69778224903552    4.72333938255299
H         6.58603033828946   -3.66121770439685    1.97845898813506
H         6.54685250993434   -4.60790702551179   -0.28339508145133
H         4.59896988533180   -4.25039324708055   -1.74932041178113
H         2.67450255417861   -2.92876349961787   -0.94204796328599
H         2.72190004428895   -1.95158959218223    1.32852504457216
H         0.32747081285022   -1.46744151406902    0.37542310229700
H        -1.20294376829904   -2.08586463624754   -1.45555188398824
H        -3.20343140188170   -3.45273753337756   -0.98324693635488
H        -3.67097070920184   -4.18203393656193    1.32650083695752
H        -2.14971436772403   -3.56600087414496    3.14766329197672
H         3.26396437008160   -3.23816371399165    6.67259589694425
H         3.67321906927153   -5.03976379765186    8.30459731365994
H         1.98297803431634   -6.81042747933298    8.63865599977876
H        -0.11492111822893   -6.76642951554916    7.34624411265947
H        -0.53333504712317   -4.97678630307849    5.72538601092107

