51
CSD_code = JAHXEY | q = 1 | S = 0 | Stoichiometry = C25H21AuN2PS(1+) | MND = 2
Au        1.93284902958018    5.40278142254011    6.44564711375716
N         3.33518235717776    5.25478472266916    4.90525471080822
C         4.10491023104896    6.20358041770695    4.43776747366488
S         5.21893219437269    5.71203566946620    3.18983729087055
C         4.58535680938902    4.08427772724167    3.31311715696368
C         3.57866383258210    4.04165385028765    4.28801979151156
N         4.08550025220500    7.47113937005622    4.86055239491294
H         4.67945909144113    8.15746330839253    4.42955515719578
H         3.41130856965048    7.76489713323641    5.54691001040194
C         4.95843256272805    2.96001639214909    2.60017737980780
H         5.73586879683686    3.01408339381257    1.85576689460773
C         4.30328058307425    1.77338307218749    2.87322513807097
H         4.57459408009802    0.88154626489302    2.33158726511830
C         3.29920137563118    1.71766931881212    3.83433954214424
H         2.79985764882020    0.78128422211302    4.02690539552648
C         2.92915877387800    2.84185671199646    4.54620635273781
H         2.14703653623319    2.80357038332319    5.28967359114689
P         0.40499611425660    5.44878063394514    8.09668735054366
C        -0.51074436147148    3.89226939978100    8.21371482835699
C         0.23755936540404    2.71655043641447    8.17407181986068
H         1.31605251130301    2.77598018109585    8.08492689912240
C        -0.39706640597729    1.49292043461890    8.26066448458276
H         0.18131357846492    0.58195323698904    8.23695180539023
C        -1.77857285566271    1.43854647769796    8.37414949939756
H        -2.27449404658209    0.48238772457781    8.43738220148516
C        -2.52321936004096    2.60615310128181    8.40369975501789
H        -3.59787477385279    2.55990530011387    8.48941422573737
C        -1.89524314461469    3.83744935899725    8.32337305818928
H        -2.47489817204289    4.74947943115189    8.34453155517696
C         1.10654091839824    5.71313245676472    9.74471078080013
C         0.79570186668144    4.91129594107173   10.83661657687525
H         0.11561347005593    4.07893563108834   10.72324492231880
C         1.36316352664219    5.18903116871734   12.06844886888277
H         1.12338019360072    4.56887388741068   12.91834475041247
C         2.23215258819264    6.25770844871024   12.21261987726968
H         2.66944925759503    6.46937586099967   13.17599005339008
C         2.54464807255511    7.05628181373705   11.12252466775592
H         3.22258843234268    7.88802328387731   11.23704833679145
C         1.98808257231387    6.78250042280781    9.88864624222724
H         2.22330213813521    7.39485001459792    9.02620823138944
C        -0.84998062402992    6.74014372611738    7.92343311837183
C        -1.44833243924539    7.33140167890671    9.03259169675301
H        -1.14843663497689    7.03827837798192   10.02919078716690
C        -2.42411603698156    8.29417372474241    8.84802585553146
H        -2.88944472795205    8.75527926883913    9.70572064885159
C        -2.80454498135021    8.66538994167204    7.56784651892010
H        -3.56640863665719    9.41686946402674    7.43048309242569
C        -2.20838538411920    8.07707802222038    6.46292216841436
H        -2.50596572885347    8.36811907989151    5.46717909452244
C        -1.22854171531914    7.11795095015032    6.63799647929128
H        -0.75126730096307    6.65140773811823    5.78429708952510

