87
CSD_code = JAHZOI | q = 0 | S = 0 | Stoichiometry = C38H40N2O6Zn | MND = 5
Zn        4.30106841920532    0.69695450782944   15.21953499598384
O         5.85049523544677    1.84620554135023   14.75043771706562
O         6.08838288590859    0.02679397360301   15.92087509589591
O         8.45390710062179   -0.84376057903685   16.47410726221467
H         7.46898044838406   -0.80927066761095   16.39572130438376
O         2.55227150907079    1.28106876469756   14.32299174663035
O         3.92608475729463   -0.16540662608431   13.45160515027045
O         3.39647797369303   -1.25955468092472   11.18467287014341
H         3.87782532283238   -1.04288182371077   12.02092137644041
C         6.60187211954874    1.02467494774365   15.32250136604057
C         8.06220692769711    1.21937391258838   15.31312570359852
C         8.92451763704005    0.26810821380429   15.88357332143054
C        10.30975344386853    0.48708420274278   15.83174527915226
C        10.78263113931515    1.63925194296319   15.23010452251243
H        11.84999671186611    1.80621590569361   15.19421082901179
C         9.94030581437396    2.59308417106382   14.66586619764942
C         8.57882756563639    2.36457395039917   14.71178486925792
H         7.87260021996018    3.05958882656338   14.28577010790156
C        10.50541699033097    3.83534165822041   14.02055493833504
H        11.59751083484758    3.80152477802534   14.10863266763204
C        10.00713163588915    5.09181851688061   14.73752233138007
H         8.92640490489775    5.17403101362084   14.65851411631484
H        10.45407943143272    5.98073706102716   14.29690644209585
H        10.27249892647555    5.05613226453812   15.79205502115922
C        10.14660731647290    3.88233292251682   12.53404069795292
H        10.50818248584149    2.98899724210015   12.02963933046026
H        10.59760980289654    4.75365034721734   12.06329996157621
H         9.06943910245680    3.93702752669786   12.40160326622454
C        11.25064257661082   -0.53350800624833   16.42759256260596
H        10.64031596156057   -1.34705210512299   16.82849810792353
C        12.05859477677085    0.07460542054378   17.57555764896619
H        12.68686110261345   -0.68515074004391   18.03573112254369
H        11.39185227923063    0.47842030971836   18.33403067606022
H        12.69830554689697    0.87801175259060   17.21760243151248
C        12.17783959898319   -1.10936654132200   15.35569128666214
H        12.82570408836598   -0.33785983294028   14.94606713669734
H        11.59507744656400   -1.53567848742739   14.54261645489396
H        12.80278820233527   -1.89169629119132   15.78125219067243
C         2.86427524043232    0.52774011651911   13.37247466461572
C         1.99962615788818    0.41753841379069   12.18442477397334
C         2.30958668137553   -0.47386985365980   11.14427586313186
C         1.45301111489329   -0.54818977639829   10.03303955249322
C         0.33573726615566    0.26259955061460    9.99109301626337
H        -0.31266653148066    0.20046826523891    9.13008380102929
C         0.01865034039460    1.15612101453809   11.01242361503181
C         0.86090113742744    1.21860727822382   12.10328257925236
H         0.66516618096844    1.89389572952983   12.92298830439646
C        -1.20547148374901    2.03587354575733   10.92770052780752
H        -1.24540133679792    2.64503419172544   11.83743935540988
C        -2.48184202324176    1.19433401588080   10.86070522204932
H        -3.35923079650703    1.83796436369045   10.86551370518544
H        -2.53794435700825    0.52435529161510   11.71597843572431
H        -2.50271551209003    0.59452248908735    9.95425351489597
C        -1.11399557628350    2.97915639496521    9.72625310782981
H        -0.20192277784324    3.56910230238038    9.77965739192956
H        -1.96564698848869    3.65632063990115    9.71115266236048
H        -1.10511603343518    2.41905581227036    8.79451879751634
C         1.77342056538753   -1.50593178466768    8.90932090590867
H         2.69858123803625   -2.02398219192375    9.17460422808061
C         2.00334626433006   -0.75149072807636    7.59862359267066
H         2.30276793655631   -1.44420334742292    6.81496907725835
H         2.78877203849624   -0.00995468526948    7.72361176247353
H         1.09765627342507   -0.24187457856229    7.27765752871885
C         0.66565224161851   -2.54904217594668    8.75009350459612
H         0.50965051457873   -3.08008018942844    9.68635297473051
H         0.93834062373750   -3.27147461752688    7.98374042132084
H        -0.27228742565940   -2.08039087226055    8.46074656586305
N         3.11024331085480   -0.77058068928474   16.30530654033332
C         2.83114757189721   -1.95396807258046   15.95368271412211
C         1.85582364897542   -2.75142347846862   16.55428232474008
H         1.65500293276946   -3.75384534450114   16.21513662409169
C         1.17058605311137   -2.17782478310824   17.60091522925649
H         0.40077756253200   -2.73610610867524   18.11426692498743
C         0.79650593981482   -0.18611211432165   19.08172620468953
H         0.02537704196941   -0.71711629088599   19.61893173796494
C         1.11628936058296    1.08953809751353   19.42221292682113
H         0.60240954986260    1.58268013913521   20.23334148600754
C         2.50095942194512    3.14334318877252   19.01834031233671
H         2.00552213949103    3.66678021436736   19.82355622680938
C         3.48323418973318    3.77306025156275   18.28845923998777
H         3.78786824701628    4.78677199544307   18.48797054839691
C         4.06105025148864    3.01940650985931   17.26609557122767
N         3.74729064090561    1.82618228891239   16.98424670040186
C         2.79077011754303    1.16282353867627   17.66793760743853
C         2.12504936314732    1.81584972365088   18.72696532573799
C         1.45666480754061   -0.86050987969383   18.01504569810070
C         2.46425863693417   -0.15847710248372   17.31994249859769

