61
CSD_code = JAJBAA | q = 0 | S = 0 | Stoichiometry = C16H26N6NiO10P2 | MND = 6
Ni        2.50365755667444    2.08574693810253    8.80301587485950
P         5.49334338380494    2.92816020549961    5.75027537259182
N         4.15179403985300    3.87716844099194    5.66283212830935
O         3.54829546414139    3.14703069790188    7.72378661637634
O         5.36452501019803    1.50961634437416    6.13396823104343
O         6.11679042766776    3.00709963279174    4.27285836815531
O         6.55849915956774    3.74010610586632    6.68060431442310
C         3.29287438263699    3.68256504640156    6.62491196973631
C         6.23758152461404    4.27272734321701    3.65221332295585
H         6.42619325709258    4.08707712019555    2.59476784826576
H         7.06764424037847    4.83748405132173    4.08364744847102
H         5.31705230461678    4.84215972326010    3.77988754537373
C         7.79984124877505    3.10128398408216    6.90043095604848
H         8.24931824354121    3.56982245929038    7.77654923994386
H         8.45805181814032    3.22925961590617    6.03701672179513
H         7.65124683188405    2.03292155751013    7.07101581792853
N         2.02490693434172    4.19631679204135    6.34346083533416
H         1.99449649411057    4.71731069680397    5.47784119114062
N         0.79657473992787    2.79891885163425    7.78764740987325
C         0.83424646038609    3.71971281888799    6.81522628370979
C        -0.34162657102211    4.22351190237724    6.22998759922607
H        -0.26336282688669    4.97706897621132    5.46168089603592
C        -1.56163386694583    3.74403714002715    6.63880180311417
H        -2.47431917615713    4.11706823746432    6.19878997204418
C        -1.58969052386230    2.76178320739692    7.62263391842691
H        -2.52077563770105    2.34110179351838    7.96218573268823
C        -0.39709785298905    2.33049934589586    8.16383573004213
H        -0.38496841535341    1.57866617766104    8.93810086714284
O         2.97966272024540    0.48872612261787    7.08761936394474
H         3.80604873446740    0.84430848988976    6.69508230555309
H         3.21096158109367   -0.36538910402633    7.46059105376060
P        -0.48654069420142    1.24412049233604   11.85482254542292
N         0.85489212333749    0.29509233129214   11.94327696245268
O         1.45905277303865    1.02457300918131    9.88230299099458
O        -0.35760115083035    2.66240616272474   11.46996086633496
O        -1.11055230212070    1.16645421980650   13.33210067637447
O        -1.55156653868016    0.43176828780058   10.92467590543239
C         1.71418230451891    0.48945411012133   10.98142495119844
C        -1.23214272865175   -0.09867624889718   13.95357297427696
H        -1.42120656104102    0.08783207988445   15.01079327115416
H        -2.06223426528550   -0.66338929863741   13.52213852352972
H        -0.31178369640971   -0.66859096512324   13.82677488470957
C        -2.79317530058916    1.07014696064271   10.70516571470368
H        -3.24242400156264    0.60192685555920    9.82875372209903
H        -3.45136505759949    0.94133888230742   11.56847044584380
H        -2.64505537598103    2.13867598650544   10.53519101027759
N         2.98211244285259   -0.02399129191855   11.26347191745469
H         3.01240567558825   -0.54469132564150   12.12927199762793
N         4.21077044152603    1.37249385096643    9.81870716937757
C         4.17288828924500    0.45226751246704   10.79162321599866
C         5.34865691223427   -0.05132213639963   11.37725815982242
H         5.27033760593973   -0.80433577641738   12.14609321190951
C         6.56874540629538    0.42759725721699   10.96797251613678
H         7.48136710855743    0.05459711829683   11.40814023696941
C         6.59702527021185    1.40911180247403    9.98342291493976
H         7.52825383891118    1.82922472530014    9.64350900062112
C         5.40448530956002    1.84041955458163    9.44208231348263
H         5.39235779477390    2.59199575436940    8.66755287081487
O         2.02896246460481    3.68242865068650   10.51941951962726
H         1.20223762481798    3.32692091368695   10.91128060596154
H         1.79728259970065    4.53627980971525   10.14610216613577

