65
CSD_code = JAJDUU | q = 0 | S = 0 | Stoichiometry = C14H42ClN3Si4Zr | MND = 4
Zr        8.40821804842361    7.54383706772484    4.81252639811498
Cl        6.29563272006841    6.58509441261924    5.29223750667570
Si       10.27679043243892    6.46620958717574    7.22575090843911
Si       11.61204751186949    7.51071136059493    4.63246757508068
Si        8.05933596713265    5.65259852488235    2.42356522244140
Si        7.15297026969095    8.52137012873894    1.96784073193113
N         8.03656743884777    9.37052738753031    5.59375691035841
N         8.11755155020549    7.33751990542328    2.76506848028841
N        10.28370410921383    7.13738806694190    5.65009229611816
C         6.66778714849253    9.77916617157659    5.86379856589718
H         6.30982084649632    9.41312155509020    6.84766081931764
H         6.00170311243668    9.39853416170788    5.08293260813750
H         6.58551601912121   10.87977875977601    5.87795692216628
C         8.93529031018403    9.98758223986801    6.55258425108159
H         8.92276850001636   11.08756183840470    6.44650034946235
H         9.95698840312633    9.63133819264351    6.39047462074697
H         8.64557039670664    9.76427586507294    7.59805089569308
C         6.33841565958330    4.90879563697686    2.02604137121727
H         5.63372512810120    5.11795248570007    2.82532945378514
H         6.38512267217766    3.83212770670199    1.89498551271630
H         5.93737138654487    5.33341436864174    1.11199315645924
C         9.23159419278988    5.20264076672119    0.97159381579639
H         8.79761697619318    5.51906376371064    0.03049186618166
H         9.39835761879524    4.13256280084696    0.91094795543697
H        10.19810475552474    5.68826292237947    1.06105287916201
C         8.70376788102323    4.78793309960694    4.02898874516950
H         9.34437865549579    5.47042521455041    4.60625333201175
H         9.28780361802544    3.89918459527534    3.79873881869572
H         7.86668926503163    4.46948170638003    4.65324339720231
C         7.82371037596210   10.23929065554994    2.49730602620673
H         8.03629566036714   10.25517657697947    3.56861671619428
H         7.09956261726086   11.01866157409906    2.28178078110250
H         8.73362096265748   10.49354014953799    1.96215901418052
C         5.28033436538785    8.42173256855820    2.39110187198834
H         4.75007759274357    7.81001157800131    1.66819332227544
H         4.81043701319912    9.40067344424877    2.39263753069344
H         5.12148800313038    7.97267904681474    3.36810277957940
C         7.30736222808990    8.39217303314977    0.06309944172893
H         8.34413932569122    8.41771371490284   -0.25396261023836
H         6.79111871752916    9.21035681150822   -0.42647544090433
H         6.87680107579929    7.46566151662435   -0.29977683581921
C         8.41864140602161    6.43976178448142    7.70990736393179
H         7.92558549921196    7.37387835436412    7.41462639091949
H         8.29083971843217    6.32820004949335    8.78369155873323
H         7.89214337212223    5.60558709098471    7.24124900830746
C        11.22535916570986    7.46666733280586    8.55662383713712
H        12.28825668904989    7.47538511392815    8.34460872688178
H        11.09286638762334    7.02820968777856    9.54047062762898
H        10.89248625360580    8.49829891816720    8.60729205256228
C        10.95810591890179    4.67334724156898    7.29754856771150
H        10.44436052842503    4.01116072262888    6.60677158051042
H        10.85787565284835    4.25268031405697    8.29257626984242
H        12.01266411282493    4.65940692773388    7.04255216243010
C        10.86297056970680    8.76000305288355    3.38892835848157
H        10.12438209394073    8.26086904954569    2.75546510001325
H        11.61651758330687    9.19664300255190    2.73927795975610
H        10.36957518142373    9.57711359357765    3.91897868869533
C        12.27278898065726    5.98827179085804    3.66863856863130
H        12.64157825600264    5.22763424320731    4.34973533948441
H        13.09342779055442    6.26209487021489    3.01328608413231
H        11.49784115478704    5.53529959378722    3.05713000189834
C        13.10849919236927    8.30945304044941    5.51707202932545
H        12.81132848113181    9.14683441689330    6.13930520778111
H        13.83909785611428    8.67132220259780    4.80167391317623
H        13.60584962365382    7.58694664230342    6.15448263926733

