91
CSD_code = JAJDEE | q = 0 | S = 0 | Stoichiometry = C28H55N4Si3Ta | MND = 5
Ta        6.96275714652800    4.60245433703494    0.76006266348558
Si        5.50026462475233    4.67304609734042    3.19431930908938
Si        6.75970835305804    1.49196345550289   -0.77878594886865
Si        8.56533949734759    3.47829281827523   -2.10853667636986
N         5.19784697994401    4.80871635446317   -0.23274433894203
N         7.42417980059679    6.59459450081293    0.92191641463264
N         8.51334625493745    3.81177107962973    1.80499688553900
N         7.48374917648932    3.05442014838148   -0.83989991907036
C         3.87406289972655    4.27393937525072   -0.01057036957640
H         3.09732618017215    5.00579333582904   -0.27523306150956
H         3.74470075950024    4.01538359948556    1.03709229885941
H         3.70295685822700    3.37483123849037   -0.62085573782212
C         5.30576994572530    5.14469583915846   -1.63883039638559
H         5.24787576441525    4.24078714442204   -2.26061832741610
H         6.25104802362645    5.63735800675489   -1.85164921987223
H         4.48609171025188    5.81305898645220   -1.94196482218789
C         6.75157955849899    7.64925287295794    0.19010346694227
H         6.58377285220522    8.52472499340229    0.83190707046128
H         5.78846198148400    7.29785696272456   -0.17234235592610
H         7.35052627380309    7.98714818546668   -0.67010140558661
C         8.68838661037925    7.10596955554563    1.41378445838694
H         9.38700416710518    7.32269639089663    0.58931116744919
H         9.14771201945518    6.38479097603759    2.08561201043091
H         8.54686502740523    8.04516809929703    1.96350923623259
C         9.84560292777944    3.95511344998858    1.25488371050435
H        10.57723683697092    4.17727607964245    2.04735941448669
H         9.88579101377255    4.74885516776945    0.51212893464991
H        10.15702691908629    3.02110746580034    0.76881179417226
C         8.54677122554861    2.70959795775777    2.73951523340534
H         8.82658525780310    1.77577281852191    2.22846212061260
H         7.56973783883825    2.57647871600485    3.19652323793879
H         9.28804153605307    2.88042208251658    3.53365469601968
C         5.82319736928103    1.22630627850560    0.86857465879914
H         6.49221031032080    1.16056268745846    1.71855316306381
H         5.26390601145943    0.29607919413603    0.83154708753261
H         5.11461901993917    2.02444799308353    1.06129246415384
C         8.02311866110880    0.05983738572017   -0.91753555615629
H         8.49224692111691    0.04825765837217   -1.89518052629397
H         7.53320587545496   -0.89815317814008   -0.77706197591254
H         8.80893688600621    0.13760850305921   -0.17310875772664
C         5.46002120880551    1.15164208490054   -2.15230376110988
H         4.70663306693716    1.93149577118847   -2.20747191289002
H         4.94458070525366    0.21470225627474   -1.96341145467345
H         5.92345995487473    1.07652861327750   -3.12924537485467
C        10.30978981043083    2.67021644566186   -2.01388908981968
H        11.02442296304846    3.27572483245629   -1.46431498160611
H        10.70758803479232    2.53132479405255   -3.01497002027453
H        10.27334142857409    1.69475255999123   -1.54289754700666
C         7.92147646867872    3.03492863327599   -3.85663426349764
H         7.95768281580946    1.96258922188586   -4.01428069192012
H         8.53702146527017    3.49785397923792   -4.62199087875883
H         6.89835192926556    3.35815854480104   -4.01612246906497
C         8.90240294044985    5.37204913593317   -2.18397527634950
H         8.26676139494372    5.85707814264797   -2.91914145572285
H         9.92931202110049    5.55340509924365   -2.48846176264725
H         8.75294096353721    5.87277631817510   -1.23192842137266
C         6.33676817301907    5.75804247130393    4.62807562935459
C         6.28114260364316    7.22906432774067    4.20639834619128
H         6.81386030157985    7.85000087405409    4.92646750510131
H         5.25274458799156    7.57681883365690    4.15658661374112
H         6.73493220901873    7.35865101860153    3.22998429035195
C         5.58300107885229    5.61968235417463    5.95406849027898
H         6.05765052487685    6.23357000603342    6.71918641080900
H         5.57239444876323    4.59062831024772    6.30067486859678
H         4.55400838113237    5.95073927512260    5.84402170187615
C         7.80217229556941    5.38203577412424    4.84669237340929
H         8.34022629745985    5.37829367625470    3.90285408707987
H         7.89412382795703    4.39735742831450    5.29524347543623
H         8.27906925736272    6.09629547950078    5.51856173154971
C         3.79778267379156    5.58078949086997    3.07610818218528
C         3.62239020841395    6.62861982664974    2.17489464981176
H         4.44098261251310    6.88880152435968    1.52223538537970
C         2.43084846999846    7.32597742895761    2.09801325462551
H         2.32135033183854    8.13443566829827    1.38845871992337
C         1.37534288779883    6.99066349954899    2.93012760610721
H         0.44124981722226    7.53054116108853    2.87133595009018
C         1.52950185870966    5.95868000437355    3.83919886341169
H         0.71411571969446    5.69236682400276    4.49676286854723
C         2.72670433142989    5.26718324380236    3.91084627413805
H         2.83041798431389    4.46624977997774    4.62761875320575
C         4.99088806777252    2.94988650925317    3.91234453856012
C         5.73864213582802    2.27468810003893    4.87567359929677
H         6.62408212878269    2.73529564392958    5.28484427336467
C         5.37629404719810    1.02136929085054    5.33686292672592
H         5.98035712508151    0.52869684950601    6.08564469448983
C         4.24418422056511    0.39916250350969    4.84171097261605
H         3.95973987742011   -0.58058455102613    5.19651285349254
C         3.47799088511233    1.05012779944440    3.89017496037608
H         2.58709972043738    0.57964342955016    3.49968353829554
C         3.84949964386943    2.30229606690008    3.43714801781730
H         3.22688701708049    2.79381903022037    2.70432085415025

