43
CSD_code = JAJHOR | q = 0 | S = 0 | Stoichiometry = C16H24Si2Ti | MND = 12
Ti       -1.43590000796023    6.50015906797369    2.52156721787479
Si       -0.15341292936909    9.02600456534146    2.53687309019819
Si       -3.25012460300388    3.88144934273611    3.29695849946844
C        -1.33516159975956    8.19028351828124    3.77519056576861
C        -0.12739547544168    7.58736255814084    1.28923435582618
C        -0.85504088876482   10.65010044692230    1.79506146461501
C         1.57452762409097    9.40873167750767    3.27710605366558
C        -3.52852904702425    2.23872873838393    2.37308959393668
C        -4.22692500849749    3.92409998899831    4.93255504371422
C        -1.43533987765754    4.35201938125179    3.50608288263441
C        -0.93633190884086    5.26350616896813    4.46452365296566
C         0.32363520346282    5.72474033619785    4.03363747566398
C         0.59340312806692    5.14024507031830    2.78315841097460
C        -0.50148828984559    4.32863205517773    2.44065669206832
C        -3.51704100353578    5.41796338041317    2.23569118190237
C        -3.77225584371978    6.71629161596981    2.73339444758769
C        -3.44316778682378    7.65392458625054    1.73413542218294
C        -2.93697060386914    6.94743676218545    0.62832178655035
C        -2.94555005869363    5.57937643870724    0.94923046611896
H        -0.88752156262013    8.03191264312554    4.75860931678810
H        -2.26900506370590    8.73827709327303    3.91735438984004
H         0.87046684844604    7.16747583498069    1.14779346421074
H        -0.50774367682979    7.87220876346692    0.30626700096512
H        -1.03347054397115   11.39162473712848    2.56652122980922
H        -1.79480494442245   10.46801755770932    1.28340480737718
H        -0.16590681920079   11.08135736502631    1.07688698242063
H         1.50154947259554   10.09041111727726    4.11785074580900
H         2.22385214950993    9.86570235708139    2.53806351049554
H         2.05669499922033    8.50053833588114    3.62469200547741
H        -4.57972120044001    2.10325384894290    2.14203543195729
H        -2.97636399071682    2.19656241203350    1.44039713792104
H        -3.21331361756315    1.39873642603593    2.98280710502028
H        -5.29029046092052    3.81829466563886    4.74664238035102
H        -4.07369381454687    4.85369835205752    5.47140586320387
H        -3.92386244767696    3.10928572432032    5.58117105144112
H        -1.37937483792125    5.45367924587999    5.43553918807082
H         1.01130365670497    6.33316537656092    4.60665636507425
H         1.53334591260578    5.19827929761263    2.24914660499397
H        -0.54650770321005    3.66849020686959    1.58204148725692
H        -4.27865978160845    6.93935769507858    3.66566877981667
H        -3.64298116231754    8.71718284142819    1.76503606091567
H        -2.71206486222410    7.37139314036044   -0.34208632875564
H        -2.70855757200225    4.77423926250751    0.26322711581971

