43
CSD_code = JAJHUX | q = 0 | S = 0 | Stoichiometry = C16H24Si2Zr | MND = 12
Zr       11.49553400106998   11.84779228396676    5.45465617066535
Si        8.59951729997425   11.68278716205074    5.01500213674705
Si       14.55666399299882   12.40708463211914    6.59694668082305
C         9.61241894063466   12.58814878595288    6.36485077923173
C        10.06392241065234   10.97717588023637    4.00251410010719
C         7.50101930559377   10.28906264260491    5.75400679192197
C         7.49050329690035   12.87496548737805    3.99313336116914
C        16.27033319548746   11.86925302263612    5.95513246385933
C        14.70970766820669   13.45891372906268    8.18227441599584
C        13.50878577388487   13.27562873477991    5.28483673722037
C        12.42931978197704   14.15899357684068    5.55332671508152
C        11.61294889411159   14.23102169303279    4.40735531205478
C        12.14902410727595   13.36295649547676    3.43472202544255
C        13.29636090288605   12.75488169992637    3.97965675530460
C        13.35255823046773   10.96908573020558    6.83504692688606
C        12.21749626728145   10.99520047468172    7.68860377440521
C        11.32062252990795    9.99182242073080    7.27364741780481
C        11.86436921679310    9.36444632284878    6.13422154558873
C        13.09860409829385    9.97956240604838    5.84694880084819
H         9.47118542682592   13.67671914300497    6.34719984010220
H         9.39413701467594   12.23045629194018    7.37948781806394
H        10.10426896241454   11.38259998852040    2.98336020556245
H        10.04322576076536    9.88211957256219    3.93124087190748
H         6.76697282464890   10.68339396730578    6.44845484131017
H         8.11739679910931    9.57389340038267    6.29111606219423
H         6.96607793034097    9.74967480158158    4.97983987164544
H         6.74957131456753   13.36499714746060    4.61552067815855
H         6.96390236923640   12.35195251864254    3.20232074225948
H         8.09985765413354   13.64651263194924    3.53149386457541
H        16.79065191014265   11.27468260252575    6.69821667645619
H        16.19720398303628   11.27626250513590    5.04946084086613
H        16.88501048043872   12.73515026369735    5.73399697076860
H        15.20227823294495   12.89878492229687    8.96940736141039
H        13.73845004317972   13.77144671123569    8.55451519546929
H        15.29705596670487   14.35144922415109    7.99688451795743
H        12.33738106266799   14.78678628266247    6.43479664045476
H        10.78340893980119   14.91010618921458    4.25522541541013
H        11.81514432494892   13.28600089204903    2.40709224685234
H        13.99099613767319   12.12088596837827    3.43623306316418
H        12.12907435308116   11.58440694373165    8.59650886488659
H        10.42394544496892    9.68169785476868    7.79496665077254
H        11.46748480610354    8.47830472453532    5.65383159261054
H        13.80940834318930    9.64553227168810    5.09644625598733

