95
CSD_code = JAJPAO | q = 0 | S = 0 | Stoichiometry = C53H35N5NiO | MND = 4
Ni       12.76579763487087   11.90012270717664    9.98239421424732
N        12.94827542944968   12.62422143711015   11.66680404939923
N        10.91211169526701   11.28390733639904   10.24271304648954
N        14.35296706113157   12.85057334611172    9.19531011208020
N        12.77807869588193   10.87237162249684    8.52946342219010
N        12.23795991307823   11.49143356921585    7.45790312534814
C        14.86163306632284   12.89296060249264    7.91793308652096
C         9.99462759790770   10.76338075175630    9.35903887875653
C        10.39495835802171   11.12943142236553   11.49375888689487
C        15.31705135944568   13.34537618049605   10.01904938894460
C        16.50689500707222   13.62890600695867    9.26791388095019
H        17.43111451636330   13.97823749855085    9.68443550426113
C        12.13187761829154   12.37660061057933   12.72715427410669
C         8.91507731167352   10.17922751995679   10.11187642686046
H         8.09037859892967    9.64383442124811    9.68415048635985
C         9.16549601568895   10.39421745048760   11.42416321083469
H         8.57919673659777   10.08833409232712   12.26820031509662
C        10.93090787308105   11.33703971065337    7.09924548853656
C        12.93258435494375   12.16402784394087    6.50076885491775
C        16.22354656676099   13.35749564571246    7.97412291037421
H        16.87951178411440   13.42733958920647    7.12900329782423
C        14.05739103919566   13.25150482058156   12.14387586177628
C         9.93628513304035   10.84983450694003    7.95696919612164
C        14.22923799928005   12.66189523611054    6.68706732978542
C        14.92014502214990   13.05812327016939    5.44596001775373
C        10.20369208193447   11.43541240533970   13.93781731907732
C        10.93730892072852   11.65503135979142   12.67440268099053
O        14.38709575557249    9.69718941662278    7.38743714549502
C        10.80533680390951   11.89620115653655    5.79665398103785
H         9.88774818815045   11.95721575565975    5.24469328929118
C         8.66698185603610   10.50197934101617    7.28662358532236
C        12.71423983292011   12.94005896523782   13.91584284281029
H        12.26336435014312   12.92310810277255   14.88892269740027
C        16.33215613990684   14.19268957650331   12.09896829205490
C        15.38323514943079   14.35638966366549    5.24803571264012
H        15.24288195430363   15.09506090320857    6.02418580343626
C        13.90177526009628   13.48000833457869   13.55581534880216
H        14.61123002715196   13.98987576206535   14.17761541484594
C        12.02551176831256   12.39274046258547    5.42979482439928
H        12.26819100263894   12.92282441528276    4.52945973010364
C        13.87818370991199   10.09564296462431    8.42103062200165
C        15.18850853302785   13.57872240001797   11.39457352540576
C        15.59495998338434   10.04037883180850   10.21955311743378
H        16.33382390820406   10.30830538392428    9.47298274491697
C        10.78064389317591   10.69756503267126   14.96705855627669
H        11.76550628037128   10.27521033704134   14.82809246817791
C        14.33700138646556    9.82394470809775    9.82171238412676
H        13.56499505910639    9.47566058757148   10.50423588254291
C        16.99214603562007   13.49340089243680   13.10482205460430
H        16.66501863421627   12.49637418745150   13.35775802386719
C        16.15932379969162   13.75993525676897    3.05725066585290
H        16.64257583978512   14.03308256124945    2.13078345754708
C         7.46284764619171   11.09498538666909    7.65934363449065
H         7.45464065226648   11.81938668587059    8.46068885270181
C        10.09505065535635   10.49146788920253   16.15027347664919
H        10.55002603137578    9.91225004609164   16.94051184599767
C        15.99720183931350   14.70329671061071    4.05875541548716
H        16.34869554392277   15.71420745735226    3.91163163820036
C         8.92978038474588   11.96556189413100   14.11801511080409
H         8.48255647216636   12.54846166042714   13.32586045341969
C        15.07430762442473   12.11810044968354    4.42973599783364
H        14.72521437372854   11.10953133473913    4.59281760235909
C        16.76654839022333   15.47255323649895   11.76681512396500
H        16.25061055688833   16.02321019739760   10.99337283958715
C        17.83853866396850   16.04140198719054   12.43009438603955
H        18.16402043813933   17.03767796731029   12.16829250732670
C        16.07651651073154    9.97003682740258   11.59058125092240
C         8.67381656379995    9.59761173402878    6.22708736627098
H         9.60491549262808    9.13579246510782    5.93310841586808
C         8.24912322755744   11.76338989654300   15.30471892526101
H         7.26283675163652   12.18405230502293   15.43587977426330
C         6.29190090693548   10.77817090401818    6.99622825676164
H         5.36487603585059   11.24767807567731    7.29122199441734
C        18.49440090976480   15.33700415077593   13.42604991865501
H        19.33401948686162   15.78099164995727   13.94013426193608
C        15.69816960817724   12.46729675098737    3.24651280876113
H        15.82466933231519   11.72921166783059    2.46824207113663
C        18.06941279933041   14.06179847898284   13.75954028591984
H        18.57842475099357   13.50527934224486   14.53285578333908
C        17.44935545050556    9.90397219199764   11.83381424471960
H        18.13247092297830    9.88324709155746   10.99681820035640
C         6.30559215980893    9.86537816830515    5.95430869857395
H         5.38923418053994    9.61689552731706    5.43989042859062
C         7.49961717990186    9.27692966397880    5.57152665658550
H         7.51603878963439    8.56650255635976    4.75818592156783
C         8.82877627156530   11.02489618354794   16.32286151060881
H         8.29524610770213   10.86566783584059   17.24814544067776
C        15.21000473722966   10.01290910257477   12.68519172763238
H        14.14611282936563   10.10509306767395   12.52306677123557
C        15.70176847931573    9.97293328957510   13.97496156825207
H        15.01937968620455   10.01892401361895   14.81177947642519
C        17.93907156541741    9.85400860000039   13.12497036643386
H        19.00441255420869    9.79685967006295   13.29468428982327
C        17.06714684629661    9.88651555842787   14.20114057508971
H        17.44860804728728    9.85625436385239   15.21118668817215

