93
CSD_code = JAJQOD | q = 0 | S = 0 | Stoichiometry = C52H33F3N4Pd | MND = 4
Pd        9.58166420525507    5.20219919940555    3.18392708275936
F         8.36537189133017    9.64995580964135   -6.32928817513601
F         9.80527284182176   11.16158051999240   -5.81135061439027
F         8.05971695379653   10.87310277124420   -4.58887910646613
N         8.64649259967158    6.90898378661404    3.74640037984679
C         8.48811877371772    8.07041324147704    3.01347808938467
N         9.04632465477523    4.31220003697656    4.96008397082383
C         7.61383336015708    8.96549595668046    3.72609575947811
H         7.28910387253309    9.92163398830973    3.36489933946461
N        10.50995564564652    3.52130267095350    2.58685959842305
C         7.28314468918759    8.35702518740066    4.88407018194686
H         6.63478985695384    8.71901823293337    5.65796266259262
N        11.04677291255687    6.49538805833134   -0.56626009898419
C         7.94610628010808    7.07575028138262    4.89591397351895
C         7.83656841003806    6.17909395565578    5.97286232716546
C         8.38060514777797    4.89877458063060    5.99063635432380
C         8.33303491769417    3.98935854039804    7.11231756455169
H         7.89217429797951    4.20969371577382    8.06503827892683
C         8.95865517903310    2.85715340009132    6.72603054233512
H         9.13114534721542    1.96757660522111    7.30019471811847
C         9.39884448587655    3.06302137881160    5.36522591968313
C        10.09843531650479    2.13412771260735    4.60191419860014
C        10.58706270014614    2.36904402582556    3.30533637900555
C        11.27909206745429    1.36621927319783    2.54035447694532
H        11.45361371842591    0.35806391954271    2.86125043463760
C        11.64202208153827    1.93901983271440    1.37115111523003
H        12.18296345508016    1.49101725887271    0.56039422735081
C        11.16009472311432    3.29268948367431    1.39586566213032
C        11.37726702054782    4.20076401457336    0.36401341110746
C        10.87582991222949    5.51225390228088    0.42155768473164
C        10.11930638905080    6.05498756976072    1.47680109278806
C         9.84099326967357    7.39602302008694    1.08746164304531
C        10.45654969332455    7.61652971010223   -0.14688919562264
H        10.49950420132202    8.52345799906148   -0.72001214897817
C         9.05095151621818    8.34936428796708    1.78396005380895
C         7.10099156629050    6.62909340522854    7.17390904930053
C         7.55629712637478    7.71631043080779    7.91426701707172
H         8.45366928305083    8.23054873651404    7.60110965810394
C         6.87692406451000    8.12722381809503    9.04634600945947
H         7.24244585221133    8.96960442368272    9.61572506446077
C         5.73215747991892    7.46119053719237    9.45157159298701
H         5.20135151390958    7.78392986975704   10.33513223002221
C         5.27072456037397    6.38010740755047    8.71939378208070
H         4.37669501506401    5.85891629485584    9.02996897478794
C         5.95122482808555    5.96432081419051    7.58942705162419
H         5.58837452923955    5.12507027001116    7.01352324374300
C        10.36010550752111    0.81086194687729    5.20920618127080
C         9.30513200873126   -0.03555051635884    5.53576569456535
H         8.29230919004878    0.27627373104069    5.32455529661256
C         9.54856354295360   -1.26842828009908    6.11347893834444
H         8.72172156117796   -1.91912546606384    6.35908765784636
C        10.84761601169437   -1.66897904873185    6.37740986180692
H        11.03690881288357   -2.63075727397087    6.83103937278930
C        11.90329125613533   -0.83080035764014    6.05907110761910
H        12.91838416718791   -1.13715530530251    6.26681735749452
C        11.66259051315191    0.40032183197776    5.47714128681546
H        12.48466090361720    1.05850654829771    5.23487054768211
C        12.20359982697319    3.71496801564504   -0.76590248329095
C        11.66160074031441    2.87312410348542   -1.73346772641316
H        10.62091662389154    2.59051634295763   -1.66417890574908
C        12.44814659710573    2.40343728562923   -2.77017925625193
H        12.01871061557097    1.75191837235730   -3.51696930159362
C        13.78444902923169    2.76016527540035   -2.84611168982084
H        14.39845792640805    2.38832933417462   -3.65259646803125
C        14.33352307262412    3.58555769983219   -1.87889234335460
H        15.37887695975212    3.85314847654790   -1.92744023824162
C        13.54884048569143    4.06150078865822   -0.84369658548222
H        13.97536787865537    4.69522829662511   -0.07954214786280
C         8.81496645061231    9.64704380304187    1.13072508959689
C         8.26162111534667    9.69550317103715   -0.14826285131896
H         7.96352357619985    8.77500809059634   -0.62977331154460
C         8.06874830479802   10.90584034928596   -0.78768243547509
H         7.63828708415741   10.92989119528982   -1.77820858887225
C         8.42715002822510   12.08726029370050   -0.15923633441102
H         8.27862743915170   13.03226576485999   -0.65982213913290
C         8.97463748522271   12.05090911720507    1.11257282695824
H         9.25631411243244   12.97000198936969    1.60556103087026
C         9.16782648305418   10.84125028283359    1.75433251835519
H         9.61213877057090   10.81157312314030    2.73851766066616
C        11.64970057228206    6.38467170379986   -1.87824884550634
H        11.50128760470420    5.36751127947123   -2.24921692518970
H        12.72872636595678    6.56935023960167   -1.81580287950149
C        11.00213600911662    7.36068549929223   -2.82540196576271
C        11.71513059076704    8.41806983380184   -3.37230320504233
H        12.76694376902130    8.52698321108555   -3.15464545170166
C        11.08748136072405    9.34618265972512   -4.18521460434610
H        11.64304081846157   10.17159169197669   -4.60229739214282
C         9.73318952402553    9.21418542772974   -4.44957746312172
C         9.00965112601562    8.14996638047483   -3.92213059752581
H         7.95735191353520    8.05500414425242   -4.14226121936522
C         9.64707779853603    7.22762446327519   -3.11808929950770
H         9.08931844741765    6.40476915145108   -2.69677171836181
C         9.00541181154955   10.22069539627454   -5.29337951216534

