93
CSD_code = JAJQIX | q = 0 | S = 0 | Stoichiometry = C52H33F3N4Ni | MND = 4
Ni        5.93487355649748    5.94662287277493   10.63796911043939
F         5.48260800201707   10.82113832303473    1.10151339802778
F         6.71078150716094   12.30654681360007    2.05612751992609
F         4.78762297676107   11.80802430656318    2.87968490307400
N         4.96615547494134    7.60526957080626   11.14422299945692
N         5.51640504860926    5.13741210295339   12.38332656190336
N         6.83175272846905    4.30454607482189   10.03747242531035
N         7.41915095039361    7.22865892796461    6.94602518873845
C         4.75568343584781    8.75489284623395   10.40628158605577
C         3.81197721562120    9.61071297660756   11.07007645475535
H         3.44653521134635   10.53856462284073   10.67551642260277
C         3.48788271865840    9.00280441317269   12.22835340133635
H         2.80023193636041    9.32966698021683   12.98358049925236
C         4.23665599416239    7.77395854542996   12.27719732774424
C         4.20792461732175    6.93752019033222   13.39769651387210
C         4.87074676608433    5.72238176547288   13.43185426271798
C         4.94552196022146    4.88578719086933   14.60471812146903
H         4.55066158442821    5.14510356562460   15.56762964313285
C         5.61100359606933    3.77276772072183   14.24105719847934
H         5.87747052713940    2.92565930818660   14.84255811453196
C         5.94039474039305    3.92763809138053   12.84511296187933
C         6.57312905037023    2.95283081514349   12.09246429383145
C         6.93140057009601    3.15193267821429   10.75633448550801
C         7.51861826441629    2.10688538857914    9.96536685313445
H         7.66832586893677    1.09837112599120   10.29717724841429
C         7.81803528742513    2.64809930932211    8.76615458356204
H         8.27558609346160    2.17500189545754    7.91914501974890
C         7.40349213738024    4.02045608476123    8.81735639617525
C         7.63964632399491    4.91184306419572    7.78480868388592
C         7.19731508097048    6.23406803336390    7.90538825059213
C         6.43161717658074    6.75599519633811    8.97531037304504
C         6.18803744760424    8.10795889408055    8.58015416818689
C         6.84249428951278    8.34840253716122    7.37215085889938
H         6.91551117945235    9.27229534349213    6.83113647297056
C         5.35901843956423    9.06333477104126    9.21031926331999
C         3.45850827707712    7.37083720266968   14.59357988015096
C         3.81747753042226    8.53171229127869   15.27252916367755
H         4.65481096408749    9.11501740220490   14.91688730708073
C         3.11953488034923    8.92875826587980   16.39824734758417
H         3.40973518728166    9.82935167865594   16.91986599259493
C         2.05230038103025    8.17505690939849   16.85792193971182
H         1.50696045055275    8.48706058249995   17.73646730157606
C         1.68800597258169    7.01915710673890   16.18782543319879
H         0.85563896085075    6.42830678415712   16.54199078432973
C         2.38752633000877    6.61711776635559   15.06464332428788
H         2.10059851813965    5.71874699767246   14.53702409690091
C         6.88551438630662    1.65704886237757   12.72849736562117
C         5.86457886304809    0.83552780078374   13.19658233737787
H         4.83702909466317    1.14700166659430   13.07442560911191
C         6.15955485360473   -0.37311013014867   13.80071570651239
H         5.35876535891025   -1.00485884081634   14.15711419569529
C         7.47686214292172   -0.77332838964548   13.95007801085708
H         7.70646752354415   -1.71589031582619   14.42492428616942
C         8.49898429194803    0.03959725522021   13.48879447485403
H         9.52836029042639   -0.26724391091678   13.60555342738326
C         8.20657362361383    1.24589764725596   12.87936240112427
H         9.00263430868912    1.88469248210069   12.52440961909588
C         8.38529552612354    4.38792105643063    6.61748547434699
C         7.72402962594372    3.67809575891297    5.61853602273217
H         6.65559360364590    3.53412267075334    5.69246791765463
C         8.42942895890787    3.16061858442871    4.54674756310723
H         7.90871724817497    2.61093277245352    3.77644421339509
C         9.80094187587910    3.33788347474671    4.46616166662856
H        10.35062629003891    2.92935136219936    3.63151843665700
C        10.46667984254713    4.02924396732593    5.46466869208875
H        11.53801621839443    4.15620016693746    5.41155068938233
C         9.76448874325361    4.55093241447660    6.53655822205601
H        10.28089748274363    5.07992066487875    7.32451357137798
C         5.12236743572617   10.35118865572391    8.54285756088412
C         4.63303648561363   10.38862026585603    7.23769505558557
H         4.38406057764042    9.46193935718944    6.74037022725789
C         4.43992931075625   11.59563926266775    6.59210941410698
H         4.05875348055427   11.61215274294265    5.58153569768947
C         4.73406094063724   12.78427601349669    7.24001138635785
H         4.58566802018388   13.72634959333717    6.73396866772410
C         5.21559405487098   12.75868899753677    8.53849497212874
H         5.44550577924948   13.68342944363300    9.04746631815794
C         5.40771614745477   11.55258765858017    9.18712383196938
H         5.79942604568885   11.53140458094961   10.19362207536003
C         8.09303600752836    7.14047859036366    5.66693054278313
H         7.90510844154378    6.15539889386123    5.23394861905084
H         9.17501622840836    7.25238444111541    5.80389306335058
C         7.56411584862753    8.20034150672686    4.73689813041534
C         8.35385815204200    9.26674816763441    4.33106354704204
H         9.38446400730744    9.32342033754021    4.64753743558799
C         7.82887186979155   10.26914405701447    3.53371442466762
H         8.44281153934330   11.10164457563396    3.22733395790645
C         6.50007651087268   10.20365514519201    3.14450554696068
C         5.70205438971264    9.13123530353365    3.52802128911415
H         4.67127242476710    9.08889695639556    3.21104905737821
C         6.23779053874599    8.13470680080908    4.31762566300390
H         5.62149610276603    7.30448442906254    4.62834478141012
C         5.88390429619404   11.28265186845112    2.30124469381202

