46
CSD_code = JAJTET | q = 0 | S = 0 | Stoichiometry = C19H19NO5SeW | MND = 6
W         9.01958211683985    7.95551899951751    7.27709390357389
Se        6.59255793166578    7.97031167805055    6.00707435295734
C         6.04615328473636    6.35253298930075    5.35693892606492
N         4.82571059831973    6.13707528323517    4.87997180360986
C         7.03373011259638    5.25250565155479    5.31892023555901
C         7.17464776414868    4.44274042984297    6.37085355770633
C         7.80693157342294    5.18277012712283    4.03364022043116
C         4.39345509242789    4.82878596249311    4.42292003079680
C         3.63742521102737    4.07210677129072    5.51289327072113
C         3.83844278798373    7.19509738191660    4.81336261184620
C         3.99337510318324    8.01459896141176    3.53674358531753
C         8.13611208818718    3.35154559900618    6.51746944581008
C         9.47205638426493    3.49119408146924    6.14777478626259
C        10.36019903292487    2.44657812606213    6.32523186268130
C         9.92953796521358    1.24784772097259    6.86798000341781
C         8.60667789353076    1.10416025416944    7.25332309117614
C         7.71955895054642    2.15022253772324    7.08908048551532
C         9.28145090489961    9.78316200321492    6.51116272083700
C         8.06069214421883    8.74948319890406    8.84151002195620
C        10.72948367154496    8.10205663571706    8.24455197367610
C         8.80439574837664    6.18328291076522    8.17512177113079
C        10.05809582824794    7.23827813711680    5.73469384414005
O         9.48110057854585   10.83893370790996    6.12635838922600
O         7.57119753132705    9.21791700981841    9.75992534034104
O        11.72401736286380    8.19487073955515    8.80644644579766
O         8.77458508472346    5.25678746497339    8.84463701653909
O        10.76156987200316    6.91102001642278    4.89156887125586
H         6.49859592516858    4.57267721712998    7.20934444114326
H         8.30612461526067    4.22279895051960    3.93305598653956
H         8.55526439795936    5.97347268476824    4.00183832190558
H         7.14267192901600    5.33767748944087    3.18275146015377
H         3.74812539251043    4.97171536676341    3.55191618496205
H         5.26196018643668    4.24315511469750    4.12035618004120
H         3.29615244076346    3.11680306254066    5.12426069697983
H         2.77291195901866    4.63498587845019    5.85555858121270
H         4.28950616725607    3.88864271650685    6.36213779183402
H         3.97022134005057    7.84710129083797    5.68308658847704
H         2.84588634671396    6.74409719198296    4.85635833232212
H         3.23762036538105    8.79325209709345    3.50502600890563
H         3.88459148192390    7.38532622446527    2.65620283806751
H         4.97471273581057    8.48323321850425    3.51544026040791
H         9.82466869232333    4.43568396502295    5.76317162337675
H        11.39535730255807    2.57293403753251    6.04453619842197
H        10.62488732260836    0.43298593575708    7.00383470674099
H         8.26844931846692    0.17658702568321    7.69165515668353
H         6.68954946265499    2.03798615260251    7.39822007325789

