30
CSD_code = JAJYUO | q = 0 | S = 0 | Stoichiometry = C13H10CrO5S | MND = 6
Cr        3.69894073003265    8.03181514531881    2.45516590872909
S         3.08733330295433    5.57369298960391    2.75289152036868
O         6.41987726842188    8.08207700114408    3.76303270347402
O         5.51718106416031    7.54524786603286    0.12176311182958
O         2.57321000147681    9.06373335061748    5.04232807445474
O         1.19822384734374    8.81249117325175    0.96588787345027
O         3.98865267216547   10.96258442184818    1.97858761778682
C         4.78769913449087    5.03649953404264    2.82725963519256
C         5.10494477112231    3.70115890960014    2.65907858954974
C         6.42561067451557    3.29290124325900    2.74344531754846
C         7.41812366599381    4.22249665167566    3.01901051276756
C         7.09670988283334    5.55067141701972    3.20740106768535
C         5.77027956234223    5.99560100263291    3.11021894255225
C         5.39775273418369    7.40858967237569    3.23840542725645
C         6.31564535187376    9.46948394478421    3.98601684035264
C         2.64664018922772    5.00190357063046    1.07593639554763
C         4.71908268096144    7.65212871204851    0.94806696742124
C         2.94679135168427    8.56698501785510    4.07526042020798
C         2.11967550087713    8.44000098207715    1.54754015162323
C         3.97045714842296    9.82273063690888    2.18502556886927
H         4.32371764974867    2.98151058357167    2.46748981515157
H         6.67585867783496    2.25237778623908    2.60466684607572
H         8.44759805246406    3.90470084910296    3.08911270191983
H         7.86888444037160    6.27467895047487    3.41673879884187
H         7.18792921814319    9.74770508046902    4.57717918473718
H         5.40104284186307    9.71554091109420    4.53205119932003
H         6.32573003262254   10.01381376081928    3.03791700602296
H         1.69466939998353    5.46507334362968    0.83543555937707
H         2.54288557494034    3.92074049170597    1.07109191839747
H         3.40825257694198    5.32146500016623    0.37119432348669

