38
CSD_code = JAJYOI | q = 0 | S = 0 | Stoichiometry = C17H13CrNO6 | MND = 6
Cr        1.98380170307049    2.34395603059114    1.98820166667789
O         1.14525342882955    3.72808160888450    0.39640449549953
O         5.18897868798833    2.06151535270515    3.08743868594401
O         4.21385338168999    1.24992034605284    0.29621390614992
O         2.80147319233021    0.39637009734538    4.09481417595878
O         0.13659098268548    0.03670620976604    1.43805585947938
O         0.04414623240781    3.01569759228585    4.17517999575942
N         3.74905237603652    4.50931168965400    3.22088564088886
C         3.05842352336212    4.03663833787958    2.19462611334098
C         3.06227162932276    4.90988131338398    1.01967846521961
C         4.03214002706146    5.87562848928253    0.73139576447632
C         3.96260663246118    6.64491861191011   -0.41443880392377
C         2.91192787929948    6.47632577093863   -1.29867881746952
C         1.94281714282528    5.51307726519831   -1.05829097821362
C         2.02351885956072    4.72528272143096    0.07883416359343
C         0.07437739577017    3.47367475777397   -0.48812706727847
C         4.04780336254151    3.74629458303643    4.41375751991778
C         5.22588377025535    2.85221979088512    4.17893495165153
C         6.39258665670931    2.65917779043730    4.85816687831762
C         7.10929233926136    1.67313898852378    4.13484412722240
C         6.32718665465478    1.35161659010442    3.07021470959908
C         3.31840279572311    1.70751463219007    0.85655474203943
C         2.55757581919948    1.19373160080711    3.28857758138547
C         0.84148860438306    0.94228305416097    1.58571871728599
C         0.74321282277134    2.84805031767737    3.27165061134768
H         4.25289751567331    5.39010549074653    3.15057645960807
H         4.88321940724650    6.00446733981943    1.38591011368112
H         4.73040037034413    7.37519692935931   -0.61978701761375
H         2.84793339266719    7.08199128652499   -2.18936029163066
H         1.14567340001561    5.38378398716761   -1.77280374233855
H         4.26419296171910    4.42513676504069    5.24085667848394
H         3.17050091600954    3.13772836696629    4.65894643770429
H         6.70061388645732    3.14603973473051    5.76072317839213
H         8.06935245340138    1.26803797358833    4.37930235985581
H         6.46107461584128    0.66368996367020    2.25967328036774
H        -0.56814684550440    4.35476237310038   -0.59034903908904
H        -0.49761607753269    2.65969350039024   -0.04511001777574
H         0.43793810345901    3.16395274598281   -1.47389150451098

