53
CSD_code = JAJYID | q = 0 | S = 0 | Stoichiometry = C17H27F6OPPt | MND = 4
Pt        0.32314961475969    0.56597099113168    3.01500680929140
P        -1.62360128666852    1.81283786871763    2.30270442544783
F         3.86636756455030    0.23045754811716    5.16988029553965
F         4.51108552463765   -0.11055038508799    3.13665276972482
F         3.21393203981364   -1.52362736083063    4.10925867787491
F         3.99518038708237    2.91125909136463    3.49260779471819
F         3.20551625707720    3.04253255968930    1.49019929553940
F         2.25521011770288    4.10465580373871    3.10096985925117
O        -0.66087629737856   -2.26049242965596    3.43306846759565
C        -0.39198457501967   -1.16028001964917    3.29466884650469
C         2.28354385810938    0.54992625474967    3.47194102510912
C         1.99801276427345    1.74597531739694    3.03044736147853
C         3.45424577652475   -0.20626214501788    3.96477566371965
C         2.85250709286099    2.93449484912656    2.78641038725367
C        -1.40278371827837    2.88975465771356    0.73777484875900
C         0.01664182151886    3.46262394774497    0.75401155376470
H         0.18449864480494    4.03627821937632   -0.15635664819282
H         0.74183857340193    2.64962655497864    0.76944154748493
H         0.20428784252243    4.12079539574342    1.59298838641105
C        -1.45668228796173    1.98064889002499   -0.49395463848117
H        -1.06270407944504    2.52397739459997   -1.35185034424599
H        -2.46673480978595    1.67401526493180   -0.74272663092087
H        -0.83293205296139    1.10026542177082   -0.34619022615495
C        -2.41307496431280    4.02539681272448    0.58192109841054
H        -2.26093929957910    4.80457448155414    1.32270675612516
H        -3.43850612736062    3.67692587629338    0.64685883382907
H        -2.27735063182316    4.47939820824013   -0.39935040172139
C        -2.00769094378389    2.92186725675158    3.81879506822345
C        -1.01572113856486    4.08667021016771    3.85061374096426
H        -1.11471811767009    4.61520174764658    4.79798372779391
H        -1.19384913639174    4.80875992817120    3.06095685224814
H         0.00559296221714    3.72186173514731    3.78667589830040
C        -1.70060579220239    2.07740786798337    5.06584608885316
H        -0.72891693350759    1.56428835529560    4.95438112948399
H        -2.46442573704804    1.33687099791293    5.27320174571901
H        -1.62997454138552    2.72859851397957    5.93574880892182
C        -3.42266456589924    3.49032245033347    3.90602929787955
H        -4.17035298260930    2.71640192083132    4.04849367178592
H        -3.67767912033878    4.06942318840425    3.02381851249225
H        -3.47811459244507    4.15592477216721    4.76709710100443
C        -3.11840853766938    0.64418850665132    1.98560265786634
C        -2.63984226222485   -0.48123635175887    1.05165924940118
H        -3.15172482143944   -1.41024708924632    1.29435512616508
H        -1.56684923778286   -0.65945587763370    1.15880727635177
H        -2.84608675557342   -0.26279336779954    0.00958411728737
C        -3.51703370518293   -0.00519473683422    3.31494375025142
H        -4.03609456479867    0.69055350510011    3.96633967394919
H        -2.64662353645049   -0.40276060274954    3.83326521945069
H        -4.19840005835441   -0.83288526869145    3.12232343517319
C        -4.36759738417255    1.29452670511530    1.38961480731020
H        -5.15265773306871    0.54081840581300    1.33120280021652
H        -4.19914656129182    1.66359069977990    0.38311718051769
H        -4.73626195141774    2.10951745796636    2.00387724827134

