55
CSD_code = JAKDOO | q = 0 | S = 0 | Stoichiometry = C22H23Cl3MoN3OPSi | MND = 6
Mo        2.33410367258755    3.52465331793114    2.02478973558974
Cl        2.45660246954939    2.67764176364070   -0.05386182222198
Cl        4.04843009264979    2.07137171693006    2.77011710991218
Cl        0.99797495156704    5.28059081303515    1.21148792640047
O         1.09142045940041    2.68739168117113    2.65509414663377
N         3.93831988729036    4.74547720984516    1.49339369725950
N         6.07551060504920    6.21868980111433    0.98799858815442
C         4.05487762827108    5.16957213049920    2.77378286996976
N         2.94767090580225    4.78688070405376    3.42492635671280
P         5.25075190520065    4.92802702097041    0.48692782342510
C         5.17320049687682    5.90545547647932    3.26076467776989
C         6.05732987068181    6.50032346396967    2.30413410132876
C         6.98222744005565    7.45844432880927    2.77580946289200
C         7.13596113183673    7.69632440621271    4.11309418761766
C         6.37159990147864    6.99330212305587    5.05502148821261
C         5.40264954588369    6.12539769145915    4.62948821665375
C         4.64424662671694    5.14801342380912   -1.19305946243657
C         5.46011112870045    4.79427051304562   -2.26093002840140
C         5.01353721409360    4.98744865360555   -3.55547081716486
C         3.75773998491958    5.52937427515849   -3.78090796382935
C         2.95124241708982    5.89298460450451   -2.71430100805425
C         3.39403646484021    5.71075491407336   -1.41632959405785
C         6.20393115569479    3.37913382642727    0.58188425167434
C         5.81850176703569    2.24930254036223   -0.13225481503219
C         6.50479922323246    1.06259419765156    0.04872503669816
C         7.56896001967401    1.00034861142849    0.93449598267212
C         7.95782698309244    2.12796722240943    1.63864733518714
C         7.27522419318736    3.31813457686617    1.46536856528159
Si        2.17643299955176    5.35736766285304    4.92126100479294
C         2.52415656230867    7.22029330644924    5.18032968665562
C         2.75867031364877    4.17766949037731    6.31308850779575
C         0.32315580023604    5.09844384096873    4.57950582738080
H         7.60019539182723    7.94807362031677    2.03967210694169
H         7.87486847852138    8.40765813141717    4.45160308034272
H         6.54857462716906    7.13972048459737    6.10908952298707
H         4.82199097640257    5.56060036411951    5.33957114734182
H         6.43606805965593    4.37022005291350   -2.06795142153250
H         5.64191857485901    4.71162583949727   -4.38937133155695
H         3.40769594079870    5.67013118796794   -4.79279119685154
H         1.97499013632117    6.31814000967101   -2.89137071750317
H         2.77183161499089    5.99756840555618   -0.57780626327082
H         4.98587880710958    2.30363836294471   -0.81943642246612
H         6.20388053742680    0.18172560736317   -0.49833748252970
H         8.09615562522677    0.06881484999037    1.07708946510282
H         8.78816106238768    2.07863232756912    2.32726371685621
H         7.56950700720058    4.20833888330510    2.00533531697229
H         3.24385819620533    7.40413754541774    5.97041572303892
H         1.60555120036382    7.72879038059884    5.45509437153111
H         2.90189951256149    7.68869100700534    4.27557281038763
H         1.91470768269045    3.88574766872556    6.92971876477985
H         3.49779959211846    4.62086444096459    6.97424455407491
H         3.18437663766718    3.26906330001726    5.88903691968736
H        -0.27115312219342    5.22143058773393    5.47940572600540
H         0.14972331857917    4.09325708912004    4.19573516507947
H        -0.05148367608982    5.80088454402020    3.83789536910976

