48
CSD_code = JAKGEK | q = 0 | S = 0 | Stoichiometry = C18H21Cl2HgN5O | MND = 5
Hg        4.26386683051523    4.03510381498693    4.42627514808137
Cl        6.24416308016069    2.92914384772230    4.83861018662405
Cl        2.56435568456321    5.11582244607198    5.50907091824624
N         3.12288246965019    1.80755499676698    4.10325562721786
N         4.16945514402456    3.28379783188523    2.05407249519654
N         5.53883916418974    5.74787519400979    2.75785476975154
N         5.57762789423064    8.20586109838773    4.20705238922148
C         2.59851006514693    1.08714623613052    5.07727606488410
H         2.36289096609191    1.62088712398361    5.98952572261982
C         2.35143425734580   -0.27582298814065    4.95918490014255
H         1.92483920607395   -0.82411132749790    5.78389971133059
C         2.67169237528375   -0.90591587904873    3.76838109949642
H         2.50262754168845   -1.96471808748318    3.64009893908229
C         3.21491004880242   -0.15119195270260    2.74132604823398
H         3.47582076470571   -0.60440123606689    1.79700966060554
C         3.42694251072781    1.21080000079914    2.94565229816204
C         4.00206318316366    2.04251228143333    1.89241419324894
H         4.27184837337283    1.53230128578955    0.96028467459716
C         4.75491528964326    4.10102985223978    1.04025566656700
H         3.97821983046528    4.78497105447177    0.68461448931363
H         5.11917435949413    3.50725973654389    0.18857273610219
C         5.92371881694399    4.90397706623088    1.62820593629242
H         6.66839222957224    4.19064726386232    1.99042747884365
H         6.37311802821092    5.50525265659026    0.82208526527324
C         4.77247141966423    6.91717023917861    2.31812034254801
H         3.85921528571438    6.58654766234344    1.82218843728499
H         5.36689609993285    7.52067307056626    1.61351287363689
C         4.38665068371948    7.78835945297838    3.51381134008925
H         3.82999707971842    8.65515875898978    3.16376045639982
H         3.76464099740349    7.20013946156992    4.20116131543185
C         6.36915455104905    7.07933662066878    4.64529735407616
H         5.78250149517766    6.47558105286414    5.35558757436348
H         7.26277302888632    7.45855626608374    5.14384404038224
C         6.74770099840980    6.22168379428122    3.44286240398462
H         7.36654092222333    6.81759731998923    2.75385401230973
H         7.32111920571407    5.35761828470577    3.78379931642546
C         6.04140170118092    9.45880026793343    4.39365479409610
C         5.24150335760560   10.61899504485593    3.87741832739389
N         4.62359405761580   10.53473722988585    2.70349735187729
C         3.99594139112994   11.60337213768056    2.24522011209882
H         3.51526859704110   11.47806081259684    1.28328024467253
C         3.94022851225100   12.81013006278028    2.92472951001867
H         3.41038807946544   13.65195420384757    2.50690080885596
C         4.58780463526730   12.90208268802772    4.14738562500135
H         4.57497502501818   13.82415742581085    4.71015500334195
C         5.25830397643948   11.79220058784313    4.62942888492135
H         5.79598433373839   11.80962827778740    5.56391757947930
O         7.08453645156097    9.67947695976622    4.99040587218169

