71
CSD_code = JAKJAH | q = 0 | S = 0 | Stoichiometry = C23H43NO2SiTi | MND = 8
Ti        3.96022878202452    0.11864851892051    0.06134417908491
Si        3.00092587823148    2.04849510002793    1.96506407387422
N         4.47927109103190    1.26633281755010    1.52164202880139
O         4.99606825420231    0.44239930323153   -1.26375605270253
O         4.87463264115846    2.24918880064632   -2.67195216432175
C         2.03189971801489    1.19085463065854   -0.66035720790509
C         1.96596665396706   -0.06482343885620   -1.30346672761007
C         1.89495397865459   -1.07063459826860   -0.29905728535196
C         1.93077283086603   -0.42422991287590    0.96038168293966
C         1.99888666258860    0.98603358107887    0.75391392956191
C         1.89116925579464    2.50129897609974   -1.37862758097636
H         0.90634860558528    2.55408507053099   -1.85170790813415
H         2.63787099042657    2.60869945522233   -2.16629597844750
H         1.97615166052522    3.33311953980961   -0.68566874315839
C         1.80148059141669   -0.27485333316294   -2.78091951118578
H         0.74378778251154   -0.22206340639560   -3.05460555434964
H         2.17823757929018   -1.25030353714634   -3.08610900810394
H         2.33498762951017    0.49074246539844   -3.34359431978131
C         1.59421671900848   -2.52003807166509   -0.55970676840338
H         0.51429650965202   -2.66399908724266   -0.65452133535843
H         1.94942653964323   -3.15680075635023    0.24914023137105
H         2.05613186036572   -2.85693299079632   -1.48747925162889
C         1.75275103239047   -1.08990454527196    2.29788527336374
H         0.94962244624404   -0.60127525315586    2.85046243146557
H         2.66139612380538   -1.03136657411213    2.90172780681239
H         1.48691143139602   -2.13895413775918    2.17650070714934
C         2.37676387918311    1.91251455860101    3.78137029880011
H         2.84979700648870    2.66877497020972    4.39965938506807
H         2.58024406742237    0.94773952539693    4.23166731872454
H         1.30594797943705    2.08017778115142    3.83457231042517
C         2.96047301439097    3.94799109427306    1.64419238500048
H         3.37743096875188    4.47819165077663    2.49425229280417
H         1.94405028268470    4.30611145373309    1.51459635212829
H         3.53538498972947    4.23337744352428    0.76867044356306
C         5.74303652489984    1.33499175377214    2.23101544264758
C         5.77551357995901    0.24776486515083    3.32268633605271
H         4.95137273140999    0.40137399381042    4.01503356662199
H         6.71005604096839    0.28787272641749    3.87835676589023
H         5.67449919380457   -0.73464199880962    2.86486625075036
C         5.94433158813561    2.70401260678938    2.89966292493438
H         5.83973826934490    3.49613936057309    2.16290057426706
H         6.93646585172542    2.76257231946762    3.34184823643537
H         5.20548170163340    2.85549392621814    3.68052801117601
C         6.91927246992346    1.10705593415650    1.26348481092960
H         7.07497313209705    1.99459099272844    0.65490570725509
H         6.70727085888340    0.25979936643739    0.60571049961817
H         7.83247098509710    0.90891990658935    1.82223238042564
C         5.55189616783301    3.08503712092479   -1.73034040614707
H         5.27704590802546    2.75998045154309   -0.70810301763093
C         5.07169424540137    4.51125332555857   -1.97033747934120
H         3.99593000572257    4.58046538346027   -1.83828031152765
H         5.31417318542474    4.81415649510058   -2.98618955679994
H         5.55957137955251    5.18676422974593   -1.27261240497667
C         7.06446284129670    2.97475412054576   -1.93202826052063
H         7.38735332475881    1.94430190101846   -1.79310734663764
H         7.58931691288571    3.61197402393658   -1.22477573270722
H         7.32155498739351    3.28368370808498   -2.94346163702335
C         5.06672718285249    0.88452492720504   -2.50320406323815
C         5.27531204066100    0.10420300034808   -3.57603760446892
C         5.35624246925405    0.65421244935699   -4.96785265007582
H         5.33584767522974    1.73938777517389   -4.94879132312783
H         4.51716635220084    0.30076814340412   -5.56860946532685
H         6.27412105801472    0.31977524309560   -5.45210454304099
C         5.40039606769640   -1.38425823288773   -3.42531483267428
H         5.24667741100208   -1.67087506684821   -2.38404261227607
H         6.39052585664244   -1.71662556571811   -3.74091481259586
H         4.66691674929431   -1.89376352736613   -4.05155745519777
C         4.73804713949348   -1.77638014082274    0.49160506431275
H         4.43686907448875   -2.49143507999029   -0.28507287543964
H         4.35316324112803   -2.16452978729328    1.44230105936822
H         5.83462035946470   -1.82531774464867    0.54228302657034

