73
CSD_code = JAKKOW | q = 0 | S = 0 | Stoichiometry = C32H32Cl4N2O2Ti | MND = 6
Ti        2.88365489420651   -0.20592053829616    6.50617499650632
O         4.44434116251551   -0.23447915639511    5.76567193399006
O         1.25333054232636    0.30261555276928    6.76010832944896
N         2.61667444359383    1.53731994891700    4.58727031910287
N         3.47626791937995    2.33043724762971    7.30758250312656
C         2.32691491946627   -2.14502299611914    5.84696082145836
H         3.21494564016960   -2.78396681144061    5.91151213021526
H         1.55744775599916   -2.49384865377677    6.54506410187776
C         3.41568338904215   -0.68472747703086    8.48809400391960
H         4.41851258467615   -0.27723785889147    8.66787664072930
H         2.68808063444688   -0.21996919409436    9.16336569933522
C         1.81376936043821   -2.07709885479673    4.48377318633863
C         2.65219185776529   -2.27928751361352    3.37520627161826
H         3.69943745621088   -2.50396065684797    3.54540930070094
C         2.16233017803840   -2.21363486530576    2.08396988828047
H         2.82825630021636   -2.38043834428173    1.24868194196855
C         0.82124833284190   -1.94455999146990    1.85419587107286
H         0.43878695929155   -1.90155086054800    0.84580391061629
C        -0.02716191777234   -1.74843701096115    2.93444827505139
H        -1.07647083873383   -1.55078396020420    2.76449722677684
C         0.45777902639033   -1.81506586202741    4.22682079501517
H        -0.21604199244448   -1.67459667747769    5.06501747387802
C         3.41887380689426   -2.14131756675063    8.67528219216343
C         2.28705337960921   -2.81063404664947    9.15603072992983
H         1.40312203522295   -2.23498291656731    9.40729180640558
C         2.28220977367095   -4.18305291360954    9.31276271690098
H         1.39729813451120   -4.67884634739909    9.68677112240450
C         3.40858051741241   -4.92719748201274    8.99983557886217
H         3.40490221610364   -5.99976322606633    9.12500231705796
C         4.54181017245429   -4.28187429036215    8.52942699641296
H         5.42615375201854   -4.85555498061457    8.28807711450882
C         4.54891249786753   -2.90980081332161    8.37190335750941
H         5.43963001838862   -2.41332866950191    8.00578968496640
C         5.28734754467682    0.26397096786189    4.91220229847276
C         6.67530840014604    0.18790589006536    5.15073989516821
C         7.61088366321818    0.69957532194513    4.27536444751580
H         8.66413453514528    0.61974607816350    4.48940826687296
C         7.16153162270279    1.32061635251631    3.11981648512832
C         5.80580911309177    1.43706581813215    2.85519611534989
H         5.48143401205626    1.93309117498683    1.95283059103045
C         4.86739626749115    0.91895014344346    3.73322908471428
C         3.39281353252025    1.02132471831654    3.44752669414439
H         3.24273516377149    1.66367608861968    2.56231116229658
H         3.01372195475755    0.01924233098522    3.20941662366267
C         3.06851166805715    2.89408908644772    4.90809335502922
H         4.13471874094629    2.96274676569907    4.67437314715015
H         2.54391216475263    3.63624547302894    4.28339391068694
C         2.85431361313817    3.27161337199690    6.37390009795632
H         1.78270813115085    3.30495950637284    6.58391989369567
H         3.25717076624001    4.29022309753056    6.52567055716534
C         4.92285824291685    2.53723146964407    7.34371247429052
H         5.35622927645625    2.41204201267648    6.35329691075895
H         5.38104515521173    1.80611159640114    8.00923212218188
H         5.17244790362604    3.54707601225646    7.70615826370620
C         2.94443878948955    2.59328349657357    8.64449359743003
H         3.47516162438665    1.98937161524170    9.37780930793305
H         1.88474171426747    2.34307224634409    8.68188477090040
H         3.06517877539518    3.65264651254353    8.91999672631987
C         1.19737174198351    1.53254399434426    4.20514928197596
H         1.03222796729604    2.22246000342058    3.35821093901321
H         0.95064824318205    0.51706233796625    3.86745377156925
C         0.24287860922955    1.88886159446577    5.31283655258407
C        -0.74380361974962    2.84341244941807    5.13183552841480
H        -0.81415751955347    3.37608652018237    4.19546168415759
C        -1.65244462784891    3.12082933813080    6.14253637860603
C        -1.59627852797289    2.45337373047536    7.35652586744314
H        -2.30093125333391    2.66957256014520    8.14280075835581
C        -0.61107084444044    1.50376967538920    7.53624344265601
C         0.33032214111446    1.18820467457885    6.53632213862925
Cl        7.15688734776432   -0.56207173855426    6.62511259874819
Cl        8.30834134286582    1.97346898230176    2.00462907882265
Cl       -0.45357473083803    0.64267842902627    9.02490557881056
Cl       -2.86909355752489    4.32083808804060    5.88872036250176

