69
CSD_code = JAKKEM | q = 0 | S = 0 | Stoichiometry = C31H29Cl4NO3Ti | MND = 6
Ti        9.86847872494389    4.04800436847423    3.18641305386073
O        10.46617846670121    4.15684503103164    4.80410081145945
O         9.41224035331835    4.62811958525109    1.62941569509705
N        10.54033173068390    6.56585681780114    3.27766356845424
O         8.00272454975820    5.68010259947779    4.18727575462770
C        11.44138705904912    2.79998560600161    2.52164954618289
H        11.55095695804672    2.00684658267199    3.27078964365298
H        11.16278607478391    2.36911464504295    1.55299876693309
C         8.34274266564466    2.63086316832604    3.45577251430382
H         8.09483139271473    2.56970113673998    4.52192720025945
H         7.47763313233552    2.98030421186330    2.87647957746510
C        12.65184256539224    3.61056620859126    2.42639575445369
C        13.04976157640138    4.19727845145026    1.21450221614178
H        12.45029139771158    4.02495449571499    0.32759861296510
C        14.19386514955451    4.97017771708998    1.13369025963285
H        14.48155847966727    5.40430434617754    0.18647546260793
C        14.97783994093467    5.18384491833452    2.25711154182639
H        15.87397863882840    5.78194544422092    2.19125072736312
C        14.60807306889435    4.60634877969975    3.46364849860462
H        15.22121873883500    4.75728524378001    4.34117534179139
C        13.46799142025120    3.83040528168222    3.54829737856386
H        13.19451679438197    3.36984023405533    4.49159357018612
C         8.80611559484378    1.32666371578708    2.96519901709366
C         9.40269657401929    0.40125213588015    3.82998100699630
H         9.50459925064577    0.65214608508295    4.87986217748535
C         9.86014078407256   -0.81693259399316    3.36608533795376
H        10.31615843356045   -1.51699889069119    4.05211673764110
C         9.73103197255858   -1.14918831915645    2.02687849281554
H        10.08560307380286   -2.10313312481812    1.66564062303454
C         9.13789236472496   -0.24831851992458    1.15626774663286
H         9.02859763603362   -0.50333557960973    0.11142279512682
C         8.67979688703997    0.97044635304038    1.61728392560521
H         8.21409550791357    1.66709725687034    0.93060404226957
C        10.61994038108473    4.96499943518004    5.80992229454856
C        10.20117175835025    4.58257842334169    7.09938040526746
C        10.35084609841270    5.39934965395871    8.20172455653525
H        10.02109801125861    5.07440011442617    9.17495878143277
C        10.93298214259554    6.64550216000378    8.02316340640306
C        11.33593661443979    7.07243841866582    6.76655520327023
H        11.77278168160318    8.05312711931644    6.65351528810810
C        11.18027645504021    6.25236901654661    5.66112026969822
C        11.60304514645237    6.69104519728891    4.28526717342847
H        11.96116756602920    7.73467845767054    4.33307009987010
H        12.43882349739573    6.05559739742279    3.96318222037098
C         9.44127682991433    7.49560451282161    3.54088579959172
H         8.90766796336950    7.65210009235677    2.59811234606172
H         9.82084671073852    8.47013025279910    3.89185031393715
C         8.42443288191092    6.98042704791982    4.55584815947723
H         8.83632447009166    6.96901551019153    5.57522658785299
H         7.55809650406340    7.66311141617732    4.54722755351109
C         6.94418045435227    5.24348114558745    5.01997405370137
H         7.28688470458070    5.10701105741352    6.05317336300844
H         6.58291792896447    4.29831142036583    4.62251148124047
H         6.12597680203449    5.97486955117718    5.01180284145749
C        11.11387502864193    6.87025851119229    1.95578856246769
H        11.53871016065376    7.88908894269052    1.95144980655932
H        11.92878641488276    6.15838270543595    1.77260462749845
C        10.10626249034692    6.75636107654827    0.84214339365868
C         9.96393039722203    7.75884339408793   -0.10383111344789
H        10.58570470994997    8.63978901362451   -0.05201890817380
C         9.03119452532823    7.64006611354792   -1.12221969240269
C         8.20490083616488    6.52970887544767   -1.20647343845665
H         7.46760508591209    6.44384129808972   -1.98794216267658
C         8.34569379221822    5.53360970394452   -0.26211294875301
C         9.29934515346809    5.59984216577162    0.77336625793523
Cl        9.45251752440602    3.03326014534072    7.21906532770681
Cl       11.13857003043046    7.68940032775084    9.38490333868226
Cl        7.33746801581239    4.13872760762576   -0.28549895842864
Cl        8.88100427384208    8.90127932633310   -2.29256369003416

