57
CSD_code = JAKNUE | q = 0 | S = 0 | Stoichiometry = C17H28CoN7O4 | MND = 6
Co        1.63908468322293    3.21460233124498    1.79772888203706
O         0.72806480511890    3.47378327313840    4.44409352249247
O         4.07693739760496    4.25791600728379    0.66656076154855
O         2.58974385293980    2.86507944584248   -0.81996877992236
O        -0.90847658438185    2.36154132190027    2.87448451484001
N         1.66688734284828    3.75094504952838    3.59627736315378
N         3.28952658162795    4.10624080687923    1.76177973542915
N         1.62430036479277    2.64557981662049    0.00435612822380
N        -0.04626445954260    2.38569154215521    1.82385608653246
N         2.61755666478960    1.42020873967247    2.27737540691332
N         3.27230696095791   -0.54707703743986    2.99735306869679
N        -0.49213726575158    9.11977530873335    3.18929868664298
C         2.99573513477744    4.83199477121396    5.36705005270992
C         2.75125369258636    4.36769658096905    3.96680486074403
C         3.68392321736104    4.58549933149282    2.89403057719506
C         4.97249804804699    5.31269692566665    3.09051988386566
C         0.40408147876258    1.33497291374322   -1.68836379146803
C         0.58437353104020    1.93763446663177   -0.33076165445870
C        -0.38665791620555    1.80539943578150    0.72030469442388
C        -1.67685374293999    1.07855280080890    0.52549462292425
C         0.78118996176225    4.90356278940262    1.15791562329749
C         0.51900209452878    5.99711240997850    2.18210686176631
C        -0.19515123637638    7.18542001530741    1.50626034118791
C        -0.37095235117525    8.26728277709168    2.43598703949094
C         2.37198373119364    0.45249789698264    3.14385903145633
C         4.12684858195087   -0.18402326938069    1.99381669322985
C         3.71208475768086    1.03299740210855    1.55756984183671
C         1.28299007633369    0.40113486674249    4.14651060716072
C         3.33008140605060   -1.77279991371118    3.74383525950348
H         2.13296973573752    4.56712621334177    5.97431599381980
H         3.88580636897233    4.36188126727103    5.78347310186490
H         3.13196338959017    5.91194760655766    5.39608018304911
H         5.52974585801944    5.32706440132074    2.15769396810885
H         4.77924391405395    6.33633301944528    3.40791142479709
H         5.56736699922708    4.82654310206646    3.86170482733308
H         1.26664431158830    1.59604797783644   -2.29765391526626
H         0.32703366745658    0.25009864389551   -1.62513250498147
H        -0.49797439380408    1.71632026632148   -2.16462996375235
H        -2.24575277156979    1.08885973898033    1.45145952859529
H        -2.26177120095626    1.55824073130288   -0.25759339843546
H        -1.48981974821414    0.04943271774183    0.22342527473760
H        -0.17208713343182    4.64297801358356    0.68697010785465
H         1.42254235881265    5.31471326362908    0.37151632693951
H         1.45453652002243    6.35890645373666    2.61358578746534
H        -0.11280128513568    5.63243681935625    2.99366873428565
H        -1.17663007278578    6.87600104179183    1.13611590345368
H         0.39711980995924    7.54697968875927    0.65998934036489
H         4.93959315415012   -0.80624984272064    1.68219824635455
H         4.12372247806104    1.63389291988010    0.77240371112477
H         1.55186583716047   -0.25032314872927    4.97357422149121
H         1.07813837625257    1.39592139326256    4.53564601572389
H         0.36370368552519    0.02911816246345    3.69421091758669
H         4.11245947485275   -2.40391643864186    3.32694354689011
H         3.55989393525727   -1.57770446939819    4.79389732198809
H         2.37816096695078   -2.30308644689654    3.68406289304835
H        -0.38309723943742    2.84359012232767    3.63006802077138
H         3.56116219408063    3.74682797512554   -0.08264153666741

