45
CSD_code = JAKVOH | q = 0 | S = 0 | Stoichiometry = C20H19ClNOPPdS | MND = 5
Pd        4.63041151023494    7.72101117036870    2.81406780409354
Cl        5.63943841001906    5.69964493707799    2.40739387237975
C         8.36209068298412    2.63638809678909    7.49453182917388
H         8.87141999175872    1.92900201912084    8.11882279383866
C         8.24630519677044    2.62111850235700    6.13678385557440
H         8.67297155262774    1.85922622538838    5.50966838389058
S         7.57136754453314    3.97587501586720    8.20829118463189
C         7.50731775629919    3.71171398204587    5.64707957991161
H         7.30422519938256    3.86679461657025    4.60215325106664
C         7.07146814183446    4.54208366516880    6.64886930898444
O         5.91439326843435    6.37765216944827    7.57688432557511
C         6.27989068328697    5.76661825422862    6.59076603997872
N         5.98233120912657    6.21260498725966    5.33114449849844
H         6.18999537814371    5.66725452239702    4.48463215302914
P         5.00915102759647    7.55981183951256    5.03680297332863
C         3.39709958501113    7.13917634513628    5.78796497757226
C         2.44882078260851    6.62951718921228    4.90058190559611
H         2.70718159126821    6.52200428206587    3.83530544706511
C         1.20172272582887    6.24711588021422    5.35886139283683
H         0.46850337667467    5.85035455893542    4.67207402406728
C         0.89613310731741    6.37412417193184    6.70519762941487
H        -0.07780817432309    6.07702017880360    7.06539815068403
C         1.83715295741337    6.87750760184250    7.58868174133497
H         1.59649637030785    6.96880366620092    8.63754826914938
C         3.08801740496833    7.26226974239044    7.13722847552168
H         3.82921338952554    7.63974939219623    7.82417481645112
C         5.72812644714709    8.87839714195094    6.05012040073031
C         4.91418429292151    9.90096046594285    6.52619091438974
H         3.84956383849334    9.86800543058283    6.33534578788942
C         5.46634981438756   10.94553958688635    7.24388824338774
H         4.83177587834234   11.73299849724407    7.62387957511324
C         6.83193063838336   10.98247934157154    7.47605951881876
H         7.26111022573092   11.79654326099190    8.04125346903637
C         7.64798328053025    9.97963166953001    6.97802538323807
H         8.71353931424158   10.01435306923733    7.15120302629345
C         7.10155161475129    8.93367083944874    6.25793008656142
H         7.73457668813998    8.15223200499212    5.86058391061644
C         4.27043468124362    8.23157191582389    0.77570212700705
H         5.23747951998549    8.69713231985956    0.55100723165307
H         3.89593714070722    7.55965778243890    0.00916232638409
C         3.36096042437111    8.90018032600911    1.60406676783806
H         2.30189373903454    8.64190713247999    1.56649751008545
C         3.85083454486031    9.67489652140770    2.67490018236819
H         3.13921583890053   10.11589868600103    3.36445643749252
H         4.76414140818826   10.25770099506468    2.53161841745629

