76
CSD_code = JAKWAU | q = 0 | S = 0 | Stoichiometry = C35H31ClN2O2P2PtS2 | MND = 4
Pt       11.23434537452908   11.32509173432898    6.64600868945481
P        10.96915799585658   11.08971231580215    8.88985382697383
Cl       12.92419316811660    9.54853470623309    6.64843667583327
C         9.76715671013391   12.77450690385393    6.60697985109138
H         8.86390331018826   12.32356126270377    6.18792234634888
H        10.05497294155393   13.60975715412783    5.96412827800446
H         9.52050050187475   13.16857668226918    7.59451822172178
N        11.69408058731964    9.64694679119237    9.40456353636760
H        12.31426814463378    9.23995504795744    8.69958942406743
O        10.62995641032616    9.36068390781882   11.38066469983138
C        11.36417120432541    8.92261278981347   10.51522584460503
C        11.96299123330140    7.59074790506613   10.58301589992923
S        11.68379808659663    6.66450727545304   12.02007591565247
C        12.59907522838428    5.36367243334287   11.38803298767980
H        12.72646517470883    4.47381121475561   11.97231922789039
C        13.08857010994228    5.62265684106966   10.14319489059149
H        13.68566034556164    4.92857447185650    9.57941112384913
C        12.72629131264546    6.89839868639376    9.67748316921553
H        13.01677643755122    7.27445825020475    8.71224994696665
C         9.25784376425642   10.91453407723714    9.45850677836832
C         8.54019873742276    9.86023313380345    8.90231102138470
H         9.03354057755961    9.19652283465746    8.20129491883609
C         7.21710424229144    9.66577720299094    9.24564748973075
H         6.66281502642957    8.84053185083063    8.82288593397388
C         6.60120126155542   10.53562772643373   10.13194465263692
H         5.56702143065750   10.38396927064197   10.40419241586428
C         7.30708774950903   11.60096467694579   10.66453123031042
H         6.82196258780329   12.28139629108011   11.34907393447271
C         8.63455606777299   11.79793268557971   10.32666377275856
H         9.18651384777968   12.62825212457940   10.74314035232639
C        11.72050274097515   12.39132576825501    9.91100208126001
C        11.80829034143897   12.30057567760121   11.29706502550971
H        11.39419945286205   11.44234476664227   11.80493377634113
C        12.41982518263982   13.31671453187523   12.00925527451494
H        12.48913554445085   13.24973125795202   13.08511602998998
C        12.94173047113123   14.41865412059933   11.34925414492106
H        13.41769771100159   15.20785746948093   11.91272594100312
C        12.85592837379133   14.50961639793479    9.96930408764443
H        13.26379674908834   15.36805062326165    9.45595176366562
C        12.24862556954896   13.49577010432397    9.25125686763401
H        12.16907526101519   13.54751349288803    8.16969844787222
P        11.49307655754130   11.54444883688065    4.39287143718786
N        12.23281998787006   10.15256742441460    3.77298732220265
H        12.60783506961669    9.52501253366636    4.48695572913267
O        12.13546283203091   10.73273759296988    1.59504004727455
C        12.48672833110402    9.93986749318236    2.44756033880867
C        13.18349955043669    8.69286136326432    2.13903191198033
S        13.45721931199136    8.32235997563791    0.46939060074836
C        14.24853683309553    6.86637887691866    0.89753466651617
H        14.63290431322808    6.22734943085968    0.12725690902387
C        14.30339269774573    6.67556349062747    2.24547729745087
H        14.76216058521986    5.82148257144779    2.71040210254865
C        13.69379287001038    7.72039840531943    2.96116370948949
H        13.64618659311613    7.74578862865777    4.03555636238898
C        10.06383590900230   11.78362266959123    3.30847834257640
C         9.31366199694375   10.67500643403615    2.93130198895756
H         9.62694183478447    9.68729574285862    3.24211892840212
C         8.18236655063973   10.83585350945024    2.15487793583564
H         7.61023054937194    9.97171796016232    1.85018580984440
C         7.78146797442818   12.10470973313643    1.76849988698194
H         6.89901490080118   12.22938648417452    1.15842988003732
C         8.50911521135437   13.21297319358096    2.16851046409980
H         8.19107342956953   14.20296595559553    1.87556372166385
C         9.64506695688787   13.05660842635498    2.94185765268689
H        10.21248945713846   13.92126783899154    3.25656885012650
C        12.66505940649946   12.88704511287020    4.02267057758795
C        13.42014501667350   13.33169688411220    5.10439060168707
H        13.25472230841685   12.87856629870423    6.08230224070827
C        14.36797133260858   14.32313867681323    4.93527176433956
H        14.95206953633685   14.66577246467015    5.77678174288034
C        14.56671597362863   14.87185793542220    3.67830310639500
H        15.30646328155504   15.64678865964934    3.53981100645622
C        13.82250801609393   14.42582355659866    2.59738485365714
H        13.98609212136924   14.85204925715759    1.61848540677653
C        12.87003647802572   13.43519319174336    2.76145040988786
H        12.29854925638073   13.07598093053042    1.91959589653650

