71
CSD_code = JALGIN | q = 0 | S = 0 | Stoichiometry = C26H40ClN2PPd | MND = 4
Pd        1.28623198261589   13.73956944607436    2.82700019140769
Cl       -0.33646747312264   12.03597352830041    2.67611600081934
P         0.52532217013650   14.44063584205863    4.84416349326680
N         2.23402357082084   12.86841168559592    1.10753930798167
N         4.20889562768910   14.37027568933622    7.42828487292871
C        -0.60418853774940   12.08052431309187    6.03162296042298
H        -0.36010782488496   11.14632647665163    6.53633538237403
H        -0.86110132704248   11.84645616432797    5.00246202449532
H        -1.46418392976800   12.51170016989316    6.53628288807045
C         3.20129530337699   17.53381633893929    1.85893623054744
H         3.02043386823569   18.59660893828005    1.95454788205219
C         2.55102445521296   15.24197976400158    2.32396880204956
C        -1.18273112166309   15.26803015098303    4.72641517954585
C         0.60573941848800   13.01138599311124    6.10338293716319
C         4.52482481563547   15.70989443798605    0.94007347767148
C         3.63629181875234   13.32469045465961    1.25114903288608
H         4.17575181013219   13.08694200820731    0.32091887167646
C         1.62070249484832   13.45149954843617   -0.08737602628876
H         2.09186446394571   13.06185838543210   -1.00093127216715
H         1.72175693948719   14.53895271303311   -0.08195973106104
H         0.55838570925010   13.19543243532409   -0.10414594415942
C         2.36069819797385   16.63262532202338    2.45308817657098
H         1.52009062370650   17.00766424959381    3.01817193617840
C         3.58854634842907   14.81182353380606    1.51200531030812
C         1.84174097144430   12.21975027599461    5.65663598594598
H         1.99432645924761   11.36189932941401    6.30969671892155
H         2.74408580218989   12.83185471087404    5.69655352293921
H         1.68684425589979   11.84863981523833    4.63471166266498
C        -2.28353367426826   14.25284752593414    4.41760618728975
H        -3.16016511257716   14.77554903384390    4.03625037465205
H        -2.58856842904275   13.70428051342978    5.30166482632977
H        -1.95553522555372   13.54595455300563    3.65843305146641
C         3.66291499829297   14.91336459648088    6.58133463789479
C         1.51448946448104   15.78398637414692    5.67955449147189
H         1.21555589760370   16.71464841551356    5.19465541986116
H         1.23870504750000   15.85615624037777    6.73201089189132
C         5.65896898333485   15.29962238584884    0.20310116091720
H         5.86137659808415   14.24776136617186    0.06840473720948
C         2.17873965293391   11.41226055289042    0.98232415109014
H         2.85724711358889   11.06786205166472    0.18998774875524
H         1.16426889171976   11.10474310379532    0.73136699532755
H         2.44512573829679   10.93309306602993    1.92464212438548
C         5.23026861908830   18.02213946612709    0.55850449978313
H         5.05514194238229   19.07858813512631    0.70739266713278
C         6.52600009159497   16.21359201849166   -0.32668028535674
H         7.39001386851182   15.87819223521678   -0.88221912517803
C         3.04018542104633   15.66675734581334    5.52246932747094
H         3.25881994820397   15.15972538283654    4.56739869660559
C         6.31125753153811   17.58878847058371   -0.15415250492678
H         7.00667129175215   18.29518139917580   -0.58309593961804
C         4.32104945659289   17.10459563057256    1.12287905072835
C         3.70775006318154   17.05004919108335    5.51918317909502
H         4.79006730014346   16.94836699156254    5.47175261047000
H         3.45290704029146   17.59748980837647    6.42499442819406
H         3.38081524245409   17.61821007652052    4.65271272068812
C        -1.56924460353934   16.06420555757620    5.97193892291838
H        -2.56438209632157   16.48401211669979    5.82895975504647
H        -0.88715588184974   16.88792134570636    6.16757325120855
H        -1.60363318068664   15.42179891021510    6.84888315804889
C        -1.06845633187626   16.18880238149969    3.50470088698926
H        -2.05323542196171   16.55106058387630    3.21382273626016
H        -0.64429755114680   15.62886986426942    2.65526574500503
H        -0.44988449721477   17.06066860108935    3.70829393962549
C         0.76426104447992   13.46695641079499    7.55515439070065
H         0.69297990982175   12.59191132933567    8.19977407941330
H        -0.02647019976703   14.15504978461915    7.84744757519031
H         1.72952752232915   13.92642344322303    7.74319050478990
C         4.33220829626178   12.64319555561901    2.43547177941717
H         4.58524742347350   11.60679500801246    2.22567109444706
H         3.67611397619652   12.68885883057644    3.31604392751370
H         5.25218693740305   13.17874262562567    2.66298225466488

