71
CSD_code = JALMAN | q = 0 | S = 0 | Stoichiometry = C22H43N3NiP2 | MND = 4
Ni        7.18002203327280    5.12922790536452    6.24275622203128
P         5.34452905377212    5.79844905214441    5.34014148492518
P         9.21671930252352    4.59489459663485    6.74169161996627
N         5.91166464549185    6.63238141080982    3.96694812476192
N         8.01070971176214    5.99623613194380    4.71655112779973
N        10.08101853566293    5.30915514058445    5.55693167851262
C         7.29416799167665    6.63426120193179    3.78186715584132
C         7.89361548894141    7.26089780915924    2.70129746030475
H         7.31873783677465    7.78184810881037    1.95631734746920
C         9.28488115772667    7.20868939720057    2.59388252284354
H         9.76647763952443    7.69096040935996    1.75495662312405
C        10.02570946515974    6.55568460750390    3.53612863737434
H        11.09985335875929    6.49119538323278    3.48517274052217
C         9.37338414137723    5.93554106496432    4.62833690141857
C         5.07962931341048    7.26628604650991    2.96776453332681
H         5.29852927524391    8.33649664569398    2.89445903174409
H         4.03696000171582    7.14630857560042    3.24189346413915
H         5.23718207359728    6.81830612491715    1.98105704200500
C         4.10011254307036    4.52046210073217    4.68883854368470
C         4.77775081070355    3.90324132754329    3.46268886551407
H         4.28612270705309    2.97104243723978    3.18798411770023
H         5.82323589371886    3.68184303637988    3.68509344974564
H         4.74158056975845    4.57009363275137    2.60445701932418
C         2.68851464857972    4.98647953543416    4.34311753710122
H         2.67078460530352    5.69756185680005    3.52101831607114
H         2.19502786737422    5.42856306506600    5.20506656927241
H         2.10108895631868    4.12099369181776    4.03497971189332
C         4.00606733023160    3.44755205674312    5.77776620477617
H         3.45460680601286    2.58461822511857    5.40698482933589
H         3.49739076019230    3.82342888925916    6.66123052147014
H         5.00377869105220    3.12165326418724    6.07429574495571
C         4.54303517462385    7.14666477520409    6.39821474827921
C         5.77418928606473    7.90723683135295    6.90458181184077
H         6.27212559631417    8.43080240939274    6.08832253943702
H         6.48765418637902    7.19767301122521    7.34920531977007
H         5.49811472694383    8.63816786586227    7.66322569613641
C         3.58951795870034    8.12665666972616    5.72010393996929
H         3.19485496261199    8.80687140667037    6.47557074266150
H         2.74486536822556    7.62611766044596    5.25435190000292
H         4.10261743302120    8.72820606829680    4.97496702266791
C         3.85099379905784    6.47713301092275    7.58374775256783
H         4.50424053619490    5.72099643328809    8.01832063478941
H         2.91492343517849    6.00983955405245    7.28659862268537
H         3.62749750178450    7.21784146793710    8.35063685412553
C         9.44692815799506    2.74778075958070    6.41998408028645
C        10.88611297012312    2.41426228397714    6.04823328833702
H        10.92883627450064    1.44201008818392    5.55744267838457
H        11.52505424281197    2.37925493923999    6.92622448882223
H        11.27426146555306    3.16864650323798    5.36675731358812
C         8.53647193418241    2.53231914942766    5.20625331812492
H         8.44730875957968    1.47471104521675    4.95918482349665
H         8.93447571269278    3.05865478863142    4.33885995519706
H         7.53088598254680    2.92683597612628    5.43155865488849
C         8.95099326075002    1.89491582288553    7.57999137864121
H         7.98262067396518    2.25781691856797    7.92224683610117
H         9.65108509430105    1.91697337677299    8.41096450567807
H         8.84147078946105    0.85839116223363    7.26117992450396
C        10.03754047653037    5.22314835861607    8.30867700042204
C         9.77920863077261    6.72919547456314    8.23538287049769
H        10.13703419556435    7.23253049601439    9.13264569277803
H         8.70578812832525    6.91129832053147    8.13757721020169
H        10.28253864156370    7.15520682452619    7.36944988030065
C        11.53451785944386    4.94623446264906    8.27995606058980
H        12.04587197951778    5.57184369123975    9.01128781242576
H        11.92834110420054    5.17030812703937    7.29092956011973
H        11.74595297559392    3.90660772535259    8.51808739680896
C         9.37783382670538    4.66517510523510    9.56353786380612
H         9.64094035270165    3.62397898823910    9.72490775178694
H         8.29444609337060    4.74078414791086    9.47860851892210
H         9.69846720486229    5.23382045472011   10.43606941435953
H         6.66883003140746    4.51663511346729    7.42887898705021

