73
CSD_code = JALVUO | q = 0 | S = 0 | Stoichiometry = C35H34N2SiZr | MND = 12
C         6.00162908553334   13.67599509310311   10.71508839290718
C         5.15359244907668   12.87201661077228    9.92416282018390
H         4.12877151436426   12.73006248102214   10.25366010499266
C         5.61699027790597   12.21890081245074    8.80310049967065
H         4.93834377063605   11.60797084026565    8.22417992081629
C         6.94682210385456   12.32495144737108    8.42222196080230
H         7.30885427676050   11.81513438743954    7.54279995163972
C         7.80464487907166   13.07988370492373    9.20286091512760
H         8.84794637477408   13.15914218347913    8.93054035651892
C         7.35296724758058   13.74176049755511   10.32803927065939
H         8.06008924463428   14.31771587777996   10.90446517519707
C         6.37941343402802   14.74999316790398   12.84802502987261
H         7.21804885871435   14.04455472096122   12.94692876159414
H         5.82921445322460   14.74517097807100   13.80295658248193
C         6.93446965687902   16.17708396186559   12.63572594670738
H         7.83992232965908   16.16115497645203   12.02605427734805
H         7.19436057334977   16.59375961557882   13.61049580684062
C         5.89304919435568   17.05765733694173   11.91921623231021
H         6.21226262997160   18.10961193075941   11.95715669655234
H         5.87796323354137   16.75540616276355   10.85878292499715
C         4.17383240179685   17.72718106180637   13.48438968154428
C         5.05683474497450   18.46249203100202   14.29818076360690
H         6.12122486901169   18.42601927485447   14.12537244247162
C         4.58577695738176   19.24527802749027   15.33357682886796
H         5.29326778915358   19.78984330654920   15.94329475850787
C         3.23139171889456   19.34223873096807   15.60251016073177
H         2.87477206600032   19.95322838493603   16.41706704826916
C         2.34013440890113   18.65660026937907   14.79073138413050
H         1.27631279986803   18.74939913952161   14.96402468337940
C         2.79596253558628   17.87213729691603   13.75345824350472
H         2.09448109952578   17.39050058922301   13.07865616853101
C         2.46868707853468   14.78814500414042    9.79092433525526
H         2.22053608379678   13.76844270088848    9.51006721539949
C         3.59499248797073   15.49963388233336    9.32790223967589
H         4.34318016219828   15.12993024397012    8.63610148513819
C         3.40749182347520   16.86603438334577    9.68313212847638
C         4.13200420728294   18.02856362892737    9.37276329323782
H         5.03817338666032   17.96227360425353    8.78417048751658
C         3.65597560837218   19.24531474467243    9.79408890492997
H         4.20082196342286   20.14772361563501    9.55859546083050
C         2.44752721220571   19.34570746778552   10.49906922512470
H         2.09053892685676   20.32320585852107   10.78780587577338
C         1.70228288443918   18.23259208091291   10.80049138226958
H         0.74323829556849   18.33572255194859   11.28902040817262
C         2.17233749506913   16.96326979836929   10.42067601256560
C         1.58706560280706   15.65952923596013   10.49500996019081
C         2.13605522182255   14.91253129215893   13.95757513638162
H         1.66348633982522   15.70488621319450   14.52384508275412
C         3.33405960524410   14.28517231259403   14.34030399928231
H         3.90746168213684   14.52280610261078   15.22855863895797
C         3.48133736919203   13.11828116339407   13.53453670452915
C         4.39843354386128   12.05241545434596   13.55927553238743
H         5.21951473707343   12.05819039283110   14.26424404406765
C         4.20786534430341   10.98499464712370   12.71741267594532
H         4.89476552444767   10.15242011471747   12.73922731669281
C         3.11414573770127   10.93829400440710   11.83798246942537
H         2.98617692792119   10.06856719772714   11.21025418056979
C         2.20519228049058   11.96790908049930   11.77300948551625
H         1.34166015677966   11.89451169724793   11.12454682020708
C         2.36713193099336   13.08601708550935   12.61287089095519
C         1.52452099077904   14.21498917288198   12.88304097571610
C        -0.86105522673880   13.69754890986867   10.81236785877406
H        -0.36562335858793   13.17558959262674   10.00055346318450
H        -1.72675729094525   14.19816319614446   10.39182179213860
H        -1.22147634711537   12.95549577602144   11.51730210086063
C        -0.82693643988655   16.25952522577634   12.53335642672374
H        -1.54146404411435   15.76259731150797   13.18123275433484
H        -1.39097630484802   16.82503257023036   11.79952481320917
H        -0.26874456894918   16.96392331658390   13.14048052031992
N         5.46131390346867   14.29293494956839   11.81452982789595
N         4.53887995681998   16.92275588745741   12.43754902770375
Si        0.28131294316090   14.96589494122446   11.67274442170182
Zr        3.61231918749688   15.18381868998041   11.89311083443700

