54
CSD_code = JALWEZ | q = 0 | S = 0 | Stoichiometry = C25H26N2Zr | MND = 12
C         2.19061469343538    5.84127333963184   13.35713180664369
H         3.19437660725465    5.95618186639124   13.79271338639295
H         1.67801865521046    5.03735900931364   13.90824685177789
C         1.38253518333985    7.13737370724832   13.58993605096171
H         0.98772646350709    7.11570985242871   14.60754046209374
H         2.01647396030544    8.02127603776185   13.49509825766686
C         0.24163877427603    7.24979371973625   12.56182018679101
H        -0.47253858488246    8.01886533063822   12.89238523535046
H         0.69047930853806    7.59827722402174   11.61530935630115
C        -1.57478197661979    5.70949328311077   13.01548561951160
C        -2.47831134422073    4.75625497355163   12.49411300192314
H        -2.26142613148766    4.31361333123033   11.52306762755445
C        -3.63266584863736    4.41516430973921   13.16549561879777
H        -4.30236337332005    3.68262224836293   12.73607819096750
C        -3.95000522328314    5.01222217097556   14.37686939280209
H        -4.85404790422981    4.74359539335749   14.90092895497339
C        -3.09218947485367    5.96790077189860   14.89399988472545
H        -3.32928882789278    6.44951687401612   15.83248042991303
C        -1.93023383359332    6.31714904441044   14.23526170086444
H        -1.28672486141325    7.06066786091525   14.68049070831578
C         3.34588170343725    5.87497743746501   11.22592176400272
C         4.11600605648678    7.01462131836500   11.52732185972418
H         3.89660427116390    7.60132936408321   12.40619736053863
C         5.15144267263505    7.41149871959196   10.70428694686620
H         5.71539262147822    8.29806053840854   10.95890349057307
C         5.47262280300600    6.69844286793317    9.56183279713230
H         6.27949148672073    7.02059297638220    8.92212067159308
C         4.75289824928950    5.54983428416861    9.26477187342911
H         5.01485732604084    4.96270502665244    8.39520874709483
C         3.71991562859918    5.13834746825394   10.07893783034346
H         3.20174383205580    4.20196204977411    9.87706349387203
C         1.24496416126411    2.72632976201260   12.73663080865125
H         1.71842707213167    2.79871310645464   13.70589250325507
C        -0.14212573253324    2.71323235051694   12.49599968510414
H        -0.91171304922932    2.75630397154753   13.25748091327161
C        -0.34197336506002    2.40769701758947   11.12694270500498
H        -1.29152115976566    2.15177661938429   10.66826240659088
C         0.93210326245973    2.24958212943917   10.53059454460842
H         1.12297992974933    1.87571169418001    9.53096149093023
C         1.90639554202497    2.45121032307743   11.52693044613127
H         2.97135819826511    2.29241170118183   11.42058038854238
C        -0.39106110433575    4.31059044041327    8.67437790673177
H        -0.70815854596397    3.36816066810282    8.24603065475973
C        -1.24068349807065    5.28136482578555    9.23370781676607
H        -2.31776927756376    5.21394936253120    9.30975479725062
C        -0.47954540506081    6.43790060975236    9.48206081636754
H        -0.88150827441429    7.39300081323498    9.79395529535812
C         0.85655998929891    6.17724509059973    9.10562171467346
H         1.65629233970772    6.90836199232399    9.04495184987904
C         0.90695178243992    4.85374118299158    8.59598392297777
H         1.73746545298303    4.41786463195917    8.05379961336596
N        -0.44977038945910    5.99676736003798   12.29183069510328
N         2.29579815845345    5.40905042421423   11.97083926864943
Zr        0.58139100033110    4.69665152285346   11.08179019652862

