90
CSD_code = JALWUP | q = 0 | S = 0 | Stoichiometry = C44H42N2SiZr | MND = 12
C         7.87582946862206    3.09609073068338    6.12431721120798
C         7.63206106468702    3.12290464760286    7.51772879488713
C         7.20519323783411    4.39707015412730    7.89989144288595
H         6.95840265745972    4.68621670478386    8.90682644145627
C         7.20178591869878    5.23595982451459    6.77330471516176
C         7.63479073829253    4.44414791327599    5.65197615985798
C         7.96713202513826    5.09401131187401    4.42381710052633
H         8.46295044315255    4.54988029518674    3.62787479269195
C         7.77952045028664    6.44024289336996    4.30485884363846
H         8.07090317377490    6.95121880720795    3.39662947154833
C         7.21230813011977    7.22173079757052    5.35415017682847
C         6.93716612971606    6.62981608575503    6.61391754008988
C         6.93664468994618    8.58615799387857    5.17340157384120
H         7.14098652879606    9.03492749909206    4.21069227970168
C         6.40926463853797    9.34264712822173    6.18880391917734
H         6.19018230019330   10.38854158232606    6.03109624657822
C         6.15853571136505    8.76319217098664    7.43403048843257
H         5.74951137695456    9.36680685778347    8.23086778781597
C         6.42483996687204    7.43393858486635    7.64340136488081
H         6.22510074775212    6.98701119207966    8.60566747672305
C         7.88428722820030    1.99495548767449    8.47209984880381
H         7.51505874523464    2.25054452075570    9.46333375456999
H         8.95447843450345    1.80302882947686    8.54840815766034
H         7.40778348810673    1.06871768207734    8.15302745912258
C         8.91706870926560    0.05556215028956    5.77544022307846
H         8.13124306026715   -0.35601751585818    6.39456564093227
H         9.80173717817300    0.15656077763614    6.39454739586414
H         9.14236877255084   -0.67337373764841    5.00382543332586
C        10.12812088137752    2.18283537253132    4.06182477060984
H        10.97354954999058    1.92170984356536    4.69044367585213
H        10.22283416205384    3.23758272916683    3.82952091434070
H        10.22805177332692    1.62084702552557    3.13814645618509
C         6.96117903738122    1.68847155818947    3.86624234203774
C         5.72213415125627    1.09584563193615    4.24949740386804
C         4.70501209777861    1.51481188798295    3.37343523190151
H         3.69567579552192    1.12533495848544    3.36495446512597
C         5.27782636191298    2.38781935157637    2.41310361994702
C         6.68350487705376    2.48862134852415    2.70958378108262
C         7.54220565185178    3.11719563168123    1.77070440892447
H         8.61295239380709    3.09808253546352    1.92069455769356
C         7.02562984601135    3.66379883844772    0.63478418980065
H         7.68050626956285    4.12224128432052   -0.09246512689587
C         5.63071182181811    3.62906364719174    0.34085336052303
C         4.73507829412191    2.97504911508727    1.22808328904693
C         5.11859348254048    4.21110841389875   -0.82939426422874
H         5.80087993619890    4.71223195578405   -1.50167272570479
C         3.77947887952404    4.14997514810292   -1.12219836631451
H         3.39901315513632    4.60437918600923   -2.02515590510229
C         2.90243537173014    3.49308594279144   -0.25583721771532
H         1.85072919901838    3.44323161261159   -0.49745385927051
C         3.37178232641106    2.91163077310105    0.89579748761770
H         2.69061650830860    2.40257938925021    1.56212716999491
C         5.11951668420316    5.81114105455317    2.81941178828943
H         4.21440642726675    5.61264297598757    2.22037591500154
H         5.96770904807002    5.30365878412439    2.34752259501610
H         5.31638229004436    6.89066627193794    2.77907168053342
C         5.52777654151441    0.05838654323174    5.31823469163810
H         5.96173315684325    0.37081237320882    6.26864316226243
H         6.00349806611679   -0.87828175652414    5.02178703990680
H         4.46488565522244   -0.13401925854696    5.46266600910259
C         4.09769633594543    6.07455415704410    4.97688027179511
C         3.25241626289100    7.09039504580997    4.49783492648347
H         3.26086103807657    7.36298960932728    3.45419973275024
C         2.38626816297408    7.75523915841289    5.34329659695582
H         1.75049446599102    8.53002148115366    4.93863112161985
C         2.31761454166781    7.44191338728713    6.68832741008127
H         1.63509171000515    7.96380589664511    7.34079274258822
C         3.14699141010687    6.44754197575098    7.18402784793654
H         3.11592911102381    6.19771489769912    8.23531812089623
C         4.02171268106083    5.78005050403240    6.35447883549974
H         4.69395874945598    5.02792251315935    6.76753471972154
C         4.37092989043351    2.41293470710712    7.45883242962925
H         3.84811182625593    3.07545705085326    8.16544504912417
H         5.43975250420630    2.45171586052471    7.68325945203781
H         4.01263495457260    1.38822030769116    7.63664900416039
C         2.84132681017188    2.92735258572681    5.68703816983114
C         1.74522040850695    2.53140697761771    6.47736910297371
H         1.90002334830774    2.12403496385433    7.46387022801963
C         0.44889703332026    2.64930901595290    6.01681739630681
H        -0.36423308142575    2.33283027402470    6.65484228140173
C         0.17797270821173    3.16422584069036    4.76168124852838
H        -0.83815894440242    3.25792506342317    4.41188830927083
C         1.23988744723342    3.56388731662147    3.96469582622169
H         1.05076878599387    3.97748697457460    2.98376773431685
C         2.54096758377078    3.44599727370488    4.40721344448831
H         3.35647987876880    3.77615877990601    3.76270155844686
N         4.98301367256410    5.36549880001570    4.19733709032602
N         4.15397875757378    2.82697672747763    6.07997449806038
Si        8.49861606116858    1.73930859445402    4.97160489964118
Zr        5.61653117804534    3.53029272064660    4.81975566853830

