65
CSD_code = JAMGIQ | q = 1 | S = 0 | Stoichiometry = C24H35CuN5(1+) | MND = 5
Cu        4.01957039387356    4.71758210425957   16.25392674619473
N         4.62984149761188    3.74464440301287   14.54359447296033
N         6.07240376086984    4.84279005411995   16.44299494953524
N         4.55488717804439    2.54548784847803   17.10755711968971
N         4.52329953697038    6.56423570753467   14.81244096231003
N         2.46461378179369    5.23019162495352   17.15945381820317
C         4.61049640225077    1.73821304998984   15.88833673264122
H         3.60173599150130    1.40997595501030   15.63737788638469
H         5.24168338525912    0.84682697444682   16.01899602184345
C         5.12020094467126    2.52021464696744   14.70903347835069
C         6.04712485896562    1.98112755254527   13.82700221258480
H         6.41928114688626    0.97938855683742   13.97213993566714
C         6.48908206680717    2.75432470733195   12.76646566035122
H         7.20614025814791    2.36166476200476   12.06240881119873
C         6.01690844405156    4.05036746712644   12.64226266244195
H         6.36473254195252    4.69037995978040   11.84699595314594
C         5.09181896466440    4.51796355243839   13.56588112502648
C         4.55268210403669    5.92025868688180   13.49878042372055
H         5.15256152937395    6.49409774631163   12.77698411811473
H         3.53332770375840    5.84955632029640   13.11916002525656
C         5.90931976822688    2.74129743403403   17.62513231007708
H         6.46881641881311    1.79512540404651   17.66963890240838
H         5.84567851514216    3.14908361053293   18.63403724458328
C         6.69693539808784    3.72681824612499   16.80579065689364
C         8.02011510339884    3.48740679631380   16.45995125014950
H         8.51258159329596    2.58309580844451   16.78045769053958
C         8.69013844380459    4.42476486818858   15.69151668387772
H         9.72006142670134    4.26878957244050   15.41042468992643
C         8.00665598466589    5.55120842399631   15.26537492288469
H         8.48840762711522    6.28421097496080   14.63794900655144
C         6.68389187252691    5.71957977916742   15.65313279209967
C         5.88546840714404    6.91649537755850   15.21361222689391
H         5.83782918676076    7.59333970893589   16.06684197570431
H         6.43009257138351    7.42238593438095   14.40257043439443
C         3.60838626317041    2.01045179474706   18.12068447477931
C         3.99488425117881    0.61061489383754   18.61733795596807
H         3.99693990060990   -0.11381409899569   17.80694801712046
H         3.26976052332532    0.28209891822084   19.35691798447598
H         4.97491931514664    0.61154829539473   19.08770424302443
C         2.20432956447787    1.94722505534478   17.50025654773983
H         2.06003952374467    1.04305583401682   16.91444840227834
H         2.03486098795332    2.81418297774187   16.86658410741097
H         1.45312984664025    1.93684422030375   18.28473728018897
C         3.57143505942565    2.96781606312773   19.32155686135150
H         4.38839060507724    2.78083612919652   20.01385924423312
H         2.64921006888796    2.82579430400905   19.87766690530879
H         3.61930592719066    3.99923013827442   18.98169903448434
C         3.57635899754341    7.70739370620934   14.88511421174223
C         3.94967466120583    8.85261019480382   13.93392222145943
H         3.94050557223017    8.52788036808668   12.89658556347714
H         4.93132396006332    9.25868663537621   14.16438981913912
H         3.22359585926681    9.65413509222623   14.03904268017902
C         3.55800249861452    8.24437389829763   16.32446938687823
H         4.37596209269954    8.93580640272388   16.51023027138162
H         3.61736945709959    7.42182027855918   17.03270570128167
H         2.63705322725712    8.79224128841830   16.50205455254232
C         2.16715249118959    7.20951535688871   14.53069612666325
H         2.01308984435841    7.15892190380447   13.45592110047308
H         1.42341104741993    7.89729908289213   14.92273718432250
H         1.99579268408455    6.22712331310099   14.96327450212711
C         1.53956231733252    5.54562700425469   17.76278410234717
C         0.39138125218301    5.93753170423936   18.50581392323799
H         0.47932497581165    5.58132830766593   19.53214846189873
H        -0.50476847535027    5.51311993368383   18.05319558893532
H         0.31083089160349    7.02440738409608   18.51078964094336

