31
CSD_code = JAMHOV | q = 0 | S = 0 | Stoichiometry = C9H13Br2CdN5S | MND = 5
Cd        2.99849070292135    2.61255632109400   -0.12487257867185
Br        3.32937625069799    5.01225969743094    0.47585298448990
Br        4.74713506953630    1.27362192899402   -1.43866249755685
S         0.55549414617760    1.66947908485378   -1.17956000107491
N         3.61518140144339    1.83000975741855    2.22364436746220
N         2.40273915366859    0.12167123321537    0.52979426712629
N         1.95012762691743   -0.50889569858435   -0.58062619606273
H         2.36195518380778   -1.39572657371922   -0.86489126657984
N         0.69044654001973   -0.61127227642584   -2.49012634829674
H         0.96273549963674   -1.58170261937836   -2.54951846579444
N         4.16559759252428   -1.42357820515768    0.89115985165625
H         4.25922798742096   -1.64090154968344   -0.09230572243660
H         5.05563668295326   -1.47337659282896    1.36314296898030
C         3.95463746678912    2.62438709628558    3.22635846882988
H         3.78820231579327    3.68308972180934    3.07034711778823
C         4.50329839281445    2.14924181732146    4.40955104512707
H         4.76879403414126    2.83439856922072    5.19813148991437
C         4.70163385364765    0.78515159074532    4.54607302040778
H         5.12289647653606    0.37521415693044    5.45183471132519
C         4.35096241004574   -0.05046496336365    3.49823419517180
H         4.47364981616168   -1.11974443827443    3.57719169026475
C         3.80486549091602    0.51428432677019    2.34910004946427
C         3.42711508275348   -0.29868436997061    1.17587448194963
C         1.09333407459085    0.10992525093541   -1.43186643814381
C        -0.25763620036020   -0.13753303131496   -3.47390055349133
H         0.00558776228453   -0.58366336901480   -4.43533312449873
H        -0.14846256918344    0.94697467796011   -3.54053900158354
C        -1.69263935819015   -0.48774636744600   -3.09383292884775
H        -1.81726965204113   -1.56463928412783   -3.00241216474868
H        -2.37375601290759   -0.12156407115936   -3.85581846885176
H        -1.94795722147769   -0.02117182051082   -2.14622495330835

