55
CSD_code = JAMHIP | q = 0 | S = 0 | Stoichiometry = C18H24CdN10S2 | MND = 6
Cd        7.35206395526284    3.81867785706260    3.81829901840046
S         5.60094070197479    1.94411167752662    3.63512721076954
S         6.81562058000550    5.80192409321610    2.27583886032660
N         9.73658476565828    4.49165412418566    3.44200779198686
N         8.45525904128870    2.26288079369574    2.68488683394708
N         7.91070416435911    1.04251051450926    2.47252875874652
N         6.22103419420397   -0.43718789662264    2.82040014759868
H         5.22673026237308   -0.52112930153415    2.96993276794021
N        10.16359563050295    1.66260357523122    1.19969182076287
H         9.70323039119365    0.76137665193258    1.20860943781111
H        11.16919085302902    1.63257913138776    1.16165207543221
N         7.72474856898999    3.05119488446670    6.10818603094595
N         6.80534686279443    5.41485263401467    5.27480602383775
N         6.36654621789230    6.61632595516641    4.84472365315247
N         6.09816323959753    8.15187826030741    3.23777036784579
H         5.73729548316480    8.68916732005773    4.01363885856169
N         6.11710011942898    6.05700308859329    7.41877306843506
H         5.71169949048191    6.83454684342451    6.91138791146708
H         5.53547128884563    5.69797202217512    8.15852157022160
C        10.22604400491674    5.68994488382261    3.70499705577465
H         9.82173183952198    6.17783393858420    4.58391862708630
C        11.19565543270215    6.30523533993905    2.92736391191880
H        11.56311749040003    7.28646317946585    3.18212659311730
C        11.66748465908478    5.62823093489031    1.81126915507219
H        12.41351764388458    6.07635747673332    1.17093726058723
C        11.16164359760697    4.37578912491782    1.52392208130783
H        11.48457843026337    3.83797699832544    0.64640224628440
C        10.18380775199602    3.83132269690840    2.36397539951609
C         9.58139595636795    2.52827464663828    2.10322517633922
C         6.69773357713009    0.83065165701467    2.91768939903577
C         6.86615417397679   -1.45894119436712    2.03216542305367
H         7.93947377282866   -1.38085614163336    2.21654838229175
H         6.51359120174958   -2.43028268186885    2.38955473684208
C         6.58574264873728   -1.31108019361865    0.53716530280050
H         5.51892470514837   -1.39171247304475    0.34066980336698
H         7.10418748478126   -2.08434756799271   -0.02380705976328
H         6.92799670710997   -0.33678034137800    0.19811028001289
C         8.16566543021422    1.86495582927911    6.48056633510390
H         8.60575832142842    1.26076342705695    5.69599185292890
C         8.08250449816623    1.39528377866399    7.78288296570359
H         8.44888121944298    0.41444313991076    8.04015605754390
C         7.52003168705697    2.22847953125673    8.74029242401432
H         7.44586525801566    1.91008178492597    9.77020701936594
C         7.05455167243740    3.47108463332849    8.36046742036384
H         6.62835405617650    4.13663319001288    9.09423422381570
C         7.15539435550515    3.85822430780112    7.01660704096899
C         6.65601206734336    5.13882427395935    6.53462924563148
C         6.40809096641032    6.86732094156590    3.55202108239195
C         5.75392738183027    8.60998297189905    1.91552217905009
H         5.98675903975823    9.67730462100066    1.85970159222796
H         6.38465407994243    8.06925348333958    1.20763303577960
C         4.28274375819527    8.36837954508402    1.58195919004529
H         4.07057475730764    7.30329055243376    1.62738164598275
H         4.06258351395004    8.72594014381550    0.57999144448671
H         3.63734104757700    8.88583133256383    2.28943926176821

