78
CSD_code = JAMJIT | q = 0 | S = 0 | Stoichiometry = C40H32ClIrO2P2 | MND = 4
Ir        5.39330600532679    5.29564651879964    6.70493086191617
Cl        5.91523183009617    3.08043072462087    6.92559673933608
P         4.27136302668487    4.85664210603525    4.73701323947704
P         6.43404303697692    5.89164431515568    8.64827428436263
O         5.32295576628761    8.31802647353662    6.89691655471380
O         4.88541273211455    2.38497036349077   11.26754898004272
C         5.02982302942002    7.14241057093263    6.28838353984333
C         4.89171230422784    9.44095908154650    6.11405465223729
H         5.76725132938976   10.05767528755599    5.87981542822403
H         4.19696413884042   10.03642712801101    6.71763693595649
C         4.36691688531595    7.46252609168064    5.05100089396579
C         4.25291796426915    8.84382133936247    4.89713959070336
C         3.64086479501936    9.33888677472514    3.76612143537590
H         3.52896867611379   10.40017682134768    3.60066195222955
C         3.16201029459869    8.42737068935271    2.82476098839525
H         2.67818173986101    8.80642475869325    1.93646601262139
C         3.28587803054681    7.04862306020829    2.98341084659340
H         2.90188145355085    6.38878991314852    2.21884253821326
C         3.90356421505129    6.53966389133993    4.11416230337904
C         4.97647711182203    3.96695331258603    3.32405630732030
C         5.65809283367519    4.63468842693957    2.31173203343119
H         5.71304189770295    5.71495106233797    2.32566372213490
C         6.25868438693586    3.91551842781566    1.29416656951637
H         6.77904390673795    4.43565569747103    0.50268508513260
C         6.20023403310647    2.53128341537345    1.29217316144744
H         6.67238162535437    1.97296019009259    0.49704401892136
C         5.54710160564035    1.86196801674458    2.31552437412726
H         5.51646416780305    0.78222963054285    2.32179420819270
C         4.94038712865180    2.57448992535483    3.33215012947418
H         4.44165441469377    2.06238641188583    4.14344977608390
C         2.61151781597514    4.12362934259751    4.86960819522333
C         1.87551825174737    3.72918643808316    3.75735183634831
H         2.30343889597520    3.81815260196783    2.76819609824528
C         0.60505730611889    3.20994523819731    3.92475804979773
H         0.03297117498400    2.89968462010753    3.06221457489676
C         0.06558227262359    3.08227657138005    5.19549193932707
H        -0.92542506849694    2.67080095796786    5.31962443642819
C         0.79624932377093    3.47521186369382    6.30499869840193
H         0.37708638100708    3.36925756499214    7.29479961050972
C         2.06640029820805    3.99735769476294    6.14200062325075
H         2.66217975055578    4.30141678581648    6.99669486758791
C         7.30524149202772    4.61104569379039    9.60918245133445
C         6.56008863276145    3.62584333686878   10.24188544964480
C         5.08121244468606    3.41428754244089   10.30596977915761
H         4.52351476228616    4.29826493593778   10.63297792942851
H         4.70477285639355    3.10158801245212    9.31975013774279
C         6.10709279596081    1.69456019255536   11.47999631256794
H         6.10113149275891    0.73162493722152   10.94469737895034
H         6.20879928255041    1.49643574772072   12.55231692917454
C         7.17586742853086    2.59384887946122   10.93692021125661
C         8.55060759055978    2.50890118317564   11.01725186784329
H         9.02797674459190    1.70233381850067   11.55309201550556
C         9.30367291119989    3.48609408216909   10.38085735199186
H        10.38214380249102    3.44127389305000   10.42432803507430
C         8.69483067920569    4.51610781588303    9.68481319271229
H         9.30531257638417    5.25989799757491    9.19239165917268
C         7.76525752219494    7.08751507990841    8.29734658420942
C         8.04335401511750    8.22029557518479    9.04887361711843
H         7.46102756575815    8.44496754090070    9.93004939304870
C         9.06124734494132    9.07486377707070    8.65893990074177
H         9.27295233576484    9.95742217196142    9.24559393855307
C         9.80464259530710    8.80704539464267    7.52223418404182
H        10.59754824307230    9.47764018632737    7.22418241673094
C         9.52327574163475    7.68301879951841    6.76067824927089
H        10.09505113252576    7.47700432825870    5.86735165577419
C         8.50396912158148    6.83322335425578    7.14335815188782
H         8.25798940404917    5.95957492019082    6.54861640148589
C         5.48373552684747    6.69154831637169    9.98282134677366
C         4.19149348226602    7.13027727036929    9.72285556970194
H         3.77927716799760    6.97464876733045    8.73436466032236
C         3.44988424118765    7.74325923405862   10.71698744425992
H         2.44493324500299    8.08238721562378   10.51105338617299
C         3.99314404089155    7.91540214370453   11.97960191647892
H         3.41464569773734    8.39200894339814   12.75741007921681
C         5.27630679536070    7.46626262133643   12.24921876965023
H         5.69590448952319    7.59125271048445   13.23700798836997
C         6.02038455143262    6.85387456858150   11.25729864851514
H         7.01622347914811    6.48877890536554   11.47110890269629

