98
CSD_code = JAMKIU | q = 0 | S = 0 | Stoichiometry = C39H50Cl2N2O2Si2Zr | MND = 6
Zr       16.71745795284777    5.23316708325470    5.08660553218821
Cl       14.90812299874414    3.68298139504193    5.01271857359938
Cl       18.46714335277671    5.15633075757585    3.50235989490592
Si       15.05770621227236    6.32824362749470    1.32537749670162
Si       18.88782534083649    1.62917139852806    5.91310346216869
N        17.93497229569780    6.98810141513113    5.89766129238533
C        17.72836449405893    8.83392826661635    7.94762027548860
H        17.59284514431474    9.52752613929281    8.76522569612017
O        15.70554602292069    6.52976497401424    4.15051554836529
C        16.24526418602986    7.57184264294693    3.55790772456729
C        17.01685029758981    8.49428029718074    4.27071925087000
C        17.48210691161811    9.67633961808301    3.62411650256037
C        17.10672729003353    9.90573514232490    2.27309994901953
C        16.35815333173533    8.92643252579672    1.58227116759882
H        16.12892646277358    9.10069048235315    0.54167097882253
C        15.94432792453260    7.77412676672935    2.18395381343727
C        18.34415890821034   10.61072808762013    4.23530387341624
H        18.71174352753015   10.42262812969571    5.23290689614501
C        18.74718482936047   11.74111324401612    3.57643377988051
H        19.40620489132561   12.44302695553645    4.06662862568307
C        18.32338230745128   11.99416167545352    2.26624685910123
H        18.64353708895931   12.89469310980636    1.76399117443317
C        17.53064001038507   11.08217025390378    1.62589645386675
H        17.22301571004084   11.24235762468591    0.60251991666545
C        17.38821338757273    8.19558623811291    5.65888969370791
C        17.24553348552657    9.13706198421355    6.68509286144171
H        16.75020603646637   10.07424588112113    6.48626603885022
C        15.81513789174839    4.62120191744438    1.70588734946608
H        15.33445574589894    3.84525746407116    1.11551762907159
H        15.71619580332538    4.35212331318219    2.76030780749562
H        16.87462713735778    4.61412494897173    1.45832408675643
C        15.34237510974224    6.59696412630160   -0.54756062433795
H        16.40137578781497    6.61481259307849   -0.78259406669767
H        14.90995182417204    7.52498054727916   -0.90338552702426
H        14.89654654288905    5.79146755830704   -1.11994958931136
C        13.14709171870715    6.37812669799902    1.67086333318697
C        12.53408461517753    7.63922436746670    1.05449618547485
H        11.47267312524924    7.69990320345656    1.29425066714212
H        12.63556442458957    7.62773811892809   -0.02723178509689
H        13.02178758519691    8.53414948987270    1.43595105425117
C        12.84772940138645    6.37767734954160    3.17039554863010
H        13.24826466355245    7.27543003569764    3.63642214602833
H        13.29275528317737    5.50913000944161    3.65205180441795
H        11.77109303418561    6.35446442080737    3.34217198706570
C        12.47920442109595    5.15096518275298    1.04722656069890
H        11.39856811936098    5.20193105926140    1.17833762405308
H        12.83414298416370    4.24002716355055    1.52137743394750
H        12.68840588174529    5.09355230107110   -0.01798694369348
O        17.61477291204364    4.18572461130113    6.38218788568131
C        18.87550797231157    4.32501175562007    6.72350485206314
C        19.68460525375413    3.15659076628678    6.71657929066410
C        20.95096391782002    3.22781943707558    7.21766137333236
H        21.57277267657425    2.34519774034612    7.23300591524159
C        21.49734716225286    4.43745662278398    7.70286132601257
C        20.72719162142895    5.62954362922809    7.63670463194233
C        19.38401435180723    5.55140839197785    7.16325432395426
C        22.81299484663709    4.48779711596059    8.20185670090867
H        23.37454102379026    3.56632201408817    8.25812776664579
C        23.37561837034083    5.67173038824095    8.59202522656602
H        24.38454334951754    5.70276892077583    8.97526474645919
C        22.64452524521509    6.85852080983145    8.46248382567492
H        23.10575452420606    7.79852322110893    8.72884492821072
C        21.35879588232791    6.83974738642479    7.99201175005352
H        20.82942991549499    7.77266731050567    7.86932710630435
C        18.54550257471247    6.75157072764414    7.07480617654338
C        18.42730792782822    7.65388789069651    8.13957527524156
H        18.86653740817029    7.41399274351832    9.09499127037206
C        20.34916586408786    0.48797998029332    5.44049198310370
H        19.99207053313170   -0.39367799838232    4.92054034303116
H        20.90625378822225    0.14958489865839    6.30658896801406
H        21.04362489470174    0.99598002476223    4.77965291089716
C        17.97399590251768    1.99372184671305    4.28135876967812
H        18.58964566271224    2.61234542732984    3.63130123301826
H        17.02683172777127    2.51100403681540    4.44544232890091
H        17.76110159166262    1.07126954410046    3.74674368024324
C        17.75637412871489    0.69602439422271    7.18440834005895
C        16.65482286264568    1.60942234342334    7.72353704757853
H        16.05377262327787    2.01349462184448    6.91137926023203
H        17.08991057199986    2.43852266364021    8.27729965587564
H        15.99836291441816    1.05610036433861    8.39585300632900
C        18.59021544358812    0.19333514926721    8.36653775926152
H        19.11471378265626    1.01580152184287    8.84896649540883
H        19.32527410605124   -0.53611939939664    8.03739225736606
H        17.94816146550931   -0.28366486074676    9.10682762743451
C        17.09917970583444   -0.50363393711822    6.49961397112120
H        16.49699743277663   -1.06413218779334    7.21417407481501
H        17.84967278028902   -1.17466713506784    6.08960923427979
H        16.44911980499196   -0.17539980420890    5.69334356515122
N        15.41383367966609    6.06526806825711    7.05490404669434
H        15.86119025298032    6.87475191367708    7.49676454953641
C        14.07290700502191    6.49372583631829    6.64083704450150
H        13.56645659144106    5.65385538816509    6.16245912923642
H        14.15483240278525    7.30992198145552    5.92201402606807
H        13.47283076191801    6.82790912065650    7.49861169654935
C        15.31373810392301    5.01987903760900    8.07953847394310
H        14.70611802415592    5.34885081433798    8.93413354457292
H        16.31127366352891    4.75494980801199    8.43269459229438
H        14.85073348876461    4.13622746860554    7.63702999934454

