80
CSD_code = JAMMUI | q = 1 | S = 0 | Stoichiometry = C28H42ClHgN4O4(1+) | MND = 5
C        35.14749036323695    1.39182354864873   14.49818241016893
H        34.24042694269705    0.89979042109628   14.86884820914699
H        35.89874551315059    0.62158299570628   14.31494913795120
C        34.83740049358866    2.04601618830168   13.14689433219423
H        34.54781468888785    1.25213698248826   12.44486358378800
H        34.00386018934540    2.73963398172924   13.23453066887456
C        35.74123514176988    3.49506795801601   11.38538256599256
H        35.22305556947961    2.84089136054578   10.67114650841879
H        36.70927343979351    3.76730345493720   10.96433921417323
C        34.88386523825053    4.75967460902383   11.55545334757208
H        34.82892846759087    5.25342252676979   10.57804651837038
H        33.87130677758928    4.45699568524655   11.81999190288823
C        34.27109932235496    6.40665870147019   13.23320334925760
H        33.61827014390671    6.87834278068518   12.48657506083609
H        34.71058235735088    7.19576371751216   13.84815324115380
C        33.41387959974375    5.52404837633030   14.14603387859700
H        32.65303142519090    6.16243913769143   14.61396402401465
H        32.88170823259126    4.76759262899825   13.56339967578185
C        33.60372481332444    3.70230351157973   15.78817180571630
H        33.03350660798598    3.14118559536400   15.04517933982283
H        32.89948122274510    4.02015199818037   16.56795259875446
C        34.65393731855592    2.79879590862421   16.43615039182723
H        35.15938327766691    3.37078753973255   17.21868137449970
H        34.14036448791652    1.94987347649250   16.90893282197322
C        36.74955413190635    1.65721537359784   16.29912871459857
H        36.32779679933373    0.78559001048042   16.81810208865818
H        37.08809676464683    2.37559572880053   17.05005250850311
C        37.92839999641794    1.22978705555220   15.46985986652478
C        38.08183359868483   -0.09235959293352   15.07151510560761
H        37.34918128603101   -0.83228020223216   15.36409712685441
C        39.17758522818791   -0.50570620067844   14.33452672569453
H        39.25378826245351   -1.54317888161565   14.05239979193255
C        40.17542504927167    0.40638499101888   13.99722159217529
C        40.02229405723649    1.74262011563443   14.38571829831959
H        40.80402114456254    2.44029445180022   14.13185528087312
C        38.91959633862799    2.14372542453355   15.11007544893625
H        38.87116332831814    3.16677174205799   15.47124456133020
C        36.28564868570816    6.70265818547329   11.97115610877731
H        35.76268348239018    7.22428841306408   11.15766042346592
H        36.52957589201901    7.43200582788124   12.74812546001510
C        37.56389817937701    6.10288490141265   11.45909974552889
C        38.61899116935334    5.84987745478510   12.33816290236213
H        38.55688629786848    6.18244701152473   13.36921822215774
C        39.79213969730122    5.28339672099563   11.88573971950177
H        40.62004660061777    5.10684119781279   12.55311242734773
C        39.95263018938046    4.95681573422790   10.53420327005728
C        38.91156586888106    5.23285753194211    9.64915297095506
H        39.01280616862228    5.02673447694913    8.59570327183888
C        37.73983952209567    5.80414112408367   10.11442508126309
H        36.95507051645509    6.02854191483028    9.40588303038036
C        41.50873371960790   -1.21025857305344   12.85257441551467
H        40.79184457092505   -1.41237888135264   12.04713755279407
H        41.37483217410099   -1.94380217901119   13.65769636267656
C        42.93671782867788   -1.35832114655768   12.30902295948566
H        43.65274571121314   -1.11171483915942   13.10417005356741
H        43.07062326643152   -2.40522326094586   12.02051881997973
C        43.64822138295927    0.71250189439067   11.42837380370202
H        44.62298210697119    0.65809138579593   11.93644851424880
H        42.93869488492261    1.24631584291628   12.06976138522169
C        43.79467822869358    1.48430809514465   10.12190106633265
H        44.56988040123444    2.25438869460637   10.24402892012541
H        44.09906927151544    0.79706126071374    9.32121569895830
C        42.65566779129824    3.15444615155140    8.89821590490404
H        42.87666789882319    2.78978353811009    7.88360308958368
H        43.45004980678153    3.85246946033173    9.20180652088390
C        41.31901819399060    3.88847884520487    8.89647978723956
H        41.33561386451629    4.68744521421848    8.14418677866337
H        40.51750722908129    3.17695150681919    8.66475153710058
Cl       37.36833214425584    5.70650836130300   16.03343900542571
Hg       36.58733330144744    4.38326783447215   14.36576422410085
N        35.68458305500837    2.31867497695150   15.50468853590531
N        35.98889992653240    2.79435044533998   12.64555141050185
H        36.75965480214916    2.14290029423747   12.51050453576168
N        35.37990958852160    5.69649573078262   12.57319856041630
N        34.24287942904014    4.84234132403079   15.13446714686420
H        34.51115583311389    5.51519220681862   15.85352849710084
O        41.31582117543716    0.10536076188222   13.34329856688285
O        43.19136527367458   -0.59825068791139   11.15878734498243
O        42.56082208853606    2.09499970941661    9.81449499767819
O        41.13840516007507    4.41958243678588   10.19421829796377

