76
CSD_code = JAMNUJ | q = 1 | S = 0 | Stoichiometry = C23H32Cl2F3N8O6SZn(1+) | MND = 6
Zn        3.38056327841610    8.48597522214232    2.68566105435937
Cl        0.93420329735014   11.67439472405905    1.55365351202309
S         2.06614604645333    8.70164682772823    0.07833863166519
Cl        2.51343382290564    8.40176549378238    7.44268225174476
O         2.55135575638790    9.98873353356314   -0.33046258525160
N         2.88062183221889    6.66870052894065    3.18974816722032
H         3.27752022734261    5.81431535561232    2.83254477719489
O         1.73892520019927    8.61038625930868    1.50222400832739
F        -0.13727513166103    7.33243874207099   -0.22374275513869
O         1.07965761134234    7.61768184759508    4.22062094389185
N        -0.23482350665361    9.85515374928246    3.80358343445584
H        -0.67326996250292    8.97941542439491    3.56320381085328
H        -0.70045939128887   10.70332834901621    3.52527506024302
F        -0.45649671869383    9.45881595230547   -0.15363317806832
N         3.99081296319808   10.23002800674415    2.05070311573830
H         3.73174609352064   10.55028228602955    1.12604786476037
N         5.39499790984768   12.08883589813696    2.39553787990290
N         1.82597391474788    8.82803044867544    4.19659056266552
C         1.51040293035896    4.19562446749715    3.23180879423737
H         1.70878792036910    4.37952596144279    2.17405110502537
H         0.73609386942077    3.43709224406334    3.30660798844785
H         2.41711939857575    3.81993268550660    3.71160628402718
N         1.04054989020803    5.40067803609443    3.88607531797358
N         4.75580795025409    9.16096021100723    4.22633281744233
O         5.19553140487534   10.48140573573545    3.95638843281310
C         1.71484833089731    6.54759057752763    3.72795714356877
F         0.29058852544584    8.54494820116087   -1.96100526493773
C         6.36723994357165   12.73881634879122    3.24741929377715
H         7.11207480753365   13.22781014382867    2.62122643851968
H         6.86399394174657   12.00497698404149    3.87639529265407
H         5.88777931659794   13.48828873027153    3.88132599629479
C         4.82224051646603   10.92886261545955    2.73261097003827
C         2.95648749807288   13.67642498481879    4.36104101530225
H         3.39983509642495   14.65473387066722    4.46890960500825
C         3.04977000752999   12.75281710160242    5.39020081623456
H         3.56976875873221   13.00754278162692    6.30099605289787
C         1.69068051505924   12.10860878540172    3.05453716262790
C         2.45231757362162   11.51269093022390    5.25702552966339
H         2.49331226652332   10.79159288657495    6.05759506421684
O         2.80104510727330    7.56105139485647   -0.40268643205193
C         1.76009865485015   11.18120833778019    4.09664248247488
C         3.40080690090196    7.13683796397976    6.67275538901367
C         4.79982159238676    8.83196950780221    5.46993743498114
O         4.79084760378997    7.49037806437476    1.32899822044640
H         4.15371697404405    7.33653722025614    0.59886870690441
C         3.04983242676667    5.82235790660373    6.93549704271990
H         2.24929432380146    5.61104588450054    7.62703911618126
C         1.08681247842553    9.86917913013597    3.99161509635275
C         0.34786166961485    8.50658050810804   -0.63797069486152
C         2.28784827848302   13.35418372502825    3.19348749087565
H         2.21190742429348   14.06598654806202    2.38781339577644
N         5.20379226447374    9.62632322150256    6.46705706785836
H         5.39165533083356   10.59745734030675    6.28085256269408
H         5.16412489993968    9.31086340535381    7.42072476878300
C        -0.24231701571749    5.34485837780321    4.55385808967479
H        -1.05873318998545    5.30410916672212    3.82937610275417
H        -0.36808856383927    6.22304382738976    5.18156341461230
H        -0.27910170821105    4.45425841650837    5.18046943036015
C         4.42527134356610    7.43643222573030    5.77702268315638
C         5.09598010230590    6.38992900557653    5.15174029866438
H         5.88258090152013    6.62475482777508    4.45436222136245
C         5.04509135033442   12.80043446803815    1.18468894143636
H         4.90107097196476   13.85459858846857    1.42261262434773
H         4.12632277777808   12.41393005439313    0.75186111399842
H         5.84561382524801   12.71187337116741    0.44619317575183
C         4.76154529740685    5.07656865749080    5.42675931683956
H         5.30052176098113    4.27373183684230    4.94841469292417
C         3.73724737017301    4.79349413475500    6.31603997701750
H         3.47158923690895    3.77073491614641    6.53515590654249
C         5.99874056782494    7.96257103349092    0.73145176801434
H         5.83782396356495    8.95327040715911    0.28875381288252
H         6.28910959503406    7.27040547126156   -0.06699123193801
C         7.09594224408930    8.02412442060423    1.78144836513209
H         8.00942424270196    8.41108145501204    1.33949024686824
H         7.29016731791488    7.02967069017257    2.17347945205199
H         6.79266797316427    8.66851155613057    2.60133553701403

