79
CSD_code = JANDOU | q = 1 | S = 0 | Stoichiometry = C22H40B10CuN2P2S2(1+) | MND = 4
Cu        3.10394131521045    0.76903375222095    2.81463327723036
S         4.66205490831444    0.61003335216372    6.03284670013073
S        -0.31133720984047    1.57290479704072    2.10607207777077
P         1.30095727001171    2.22910484315679    3.30497868704722
P         2.88482921864327    0.01875002220474    5.05334802433189
N         5.19472650578367    0.90970804753350    2.96800769945121
N         2.25543247544413    0.18963694187466    0.98090677713178
C         4.11323359265791   -2.34251705879348    4.60500783315864
H         3.93131807788658   -2.08307990079658    3.55928053447820
H         4.16999644737997   -3.42631689538155    4.67596266078805
H         5.07694482454704   -1.94254877222941    4.91590473332716
C         5.17328781540475    2.07036315244133    5.13004828994706
C         1.50916603063158    0.88993090424326    5.97850504585423
C         0.69101237958633    2.06112665095035    5.06776318225304
C         3.29952753850049   -2.11968425875657    6.95939321575765
H         3.34344416637292   -3.19767526476434    7.10375177546597
H         2.54781863110306   -1.71881971379819    7.63179207228619
H         4.26611764752786   -1.70464398291639    7.23792626833557
C         2.97748980669766   -1.82459274334375    5.49838242805672
C         1.29913654827319    4.03745918724787    2.72672618630528
C         5.41604578682825    2.07180124693988    3.75590505432343
C         1.18780317869974   -0.67627988920287    1.34181977611813
C         5.41085585795705    3.21820693167436    5.87468373892514
H         5.24570921453416    3.18934164053675    6.94020975671752
C         2.28855231787412    4.83234450088130    3.57764364377492
H         3.25125958553364    4.32358113480296    3.63020756207752
H         1.92635682514176    4.99190985604115    4.58748432167636
H         2.45062943180987    5.80841040775829    3.12437194029099
C         1.32970781197102   -2.05059292716247    1.18598086020746
H         2.24841897620306   -2.43798621066203    0.76929218816974
C        -0.07335879861827    4.70089390014987    2.68930686064044
H         0.03450020077800    5.72232175926323    2.32892791691326
H        -0.53661136401403    4.73557800725973    3.67011696982948
H        -0.74303286133615    4.17536581463809    2.01143040931358
C         0.00696838492673   -0.17697221503148    1.89281401120299
C         5.84165977684929    3.24783726897698    3.14849796957189
H         6.01916240112753    3.25183283912990    2.08255164832273
C         1.68548589027729   -2.50950927703553    5.05522095593209
H         1.44477391491572   -2.25350078055557    4.02330617324053
H         0.84270302667948   -2.24221098658313    5.68344174689266
H         1.81242325777134   -3.58897833042453    5.11077494320199
C         1.86826219562231    3.94976768426956    1.30378643031833
H         1.17318601904491    3.45472361487119    0.62763830892599
H         2.82180932141890    3.41616190922243    1.30111327252255
H         2.04420373119799    4.95109242107246    0.91744658504417
C         5.84928160575168    4.37690908122666    5.26203083806539
H         6.02856814535260    5.26065424182260    5.85185684844040
C        -0.87632726442970   -2.41074827286960    2.04950717299204
H        -1.68329997996467   -3.07487336353566    2.31165952970749
C         0.30984166456004   -2.91409827200255    1.54053431634418
H         0.43842290527750   -3.97611070517163    1.40654920605036
C         6.05267539125207    4.39438767511080    3.89173056026634
H         6.38771053727707    5.29439736114059    3.40172976344936
C        -1.02297185801013   -1.04759090932889    2.22401413208941
H        -1.93946961766042   -0.64040322695842    2.62108321121592
B        -0.08734479288190    0.58701609919901    5.45700714392555
H        -0.19681460653194   -0.19381020698369    4.58568878042787
B         1.75910463389890    2.55173489046443    6.30519347126725
H         2.77887329622898    3.00952566371479    5.94254135903651
B         0.76790675078146    2.93362691933002    7.71499612042453
H         1.09623908815949    3.76187601324198    8.47686314234070
B        -1.14693370794884    0.93307295812021    6.82586115702911
H        -2.14914266240808    0.34403871337965    6.97694700363907
B         0.41967528397382    0.16236033125536    7.09617292328148
H         0.56503327714231   -0.96762459044868    7.36332389842900
B         0.19662202411567    3.35097375416554    6.09619189433579
H         0.17626276235602    4.43684726495470    5.66055208380216
B         1.59632954927265    1.36915978330577    7.61660779626095
H         2.55804630612520    1.04853860410079    8.20753334112585
B        -0.95083851633832    2.13383077993951    5.53604145851434
H        -1.72671876721914    2.38841538755300    4.69338065808455
B        -0.95014533513382    2.65954862695609    7.23903069078578
H        -1.82754160646779    3.30520578562348    7.67126313924845
B        -0.08799048223378    1.44111267685434    8.19465492359039
H        -0.35341008700918    1.20116836442977    9.31067524858029
H         1.90333918911593    1.05739644451866    0.57838941077720
H         5.68751562529072    0.96431767986237    2.08165266870660
H         2.89537963730208   -0.26142230009243    0.33408735132774
H         5.47064953767297    0.06745336600136    3.47153824317335

