46
CSD_code = JANDOS | q = 0 | S = 0 | Stoichiometry = C21H22ClNRu | MND = 9
Ru        2.58268351065744    0.31472718363094    2.97809718564865
Cl        1.72428369981175   -1.75559986004017    2.28780253536446
N         0.87931263120070    0.48813953290139    3.98928866585382
C        -0.22362099440329    0.97009353647769    3.41492574975928
C        -1.44270182411698    1.02952239779868    4.05673889128482
C        -1.53800440709223    0.55457737771552    5.36062589298663
C        -0.40956248825806    0.02705726961593    5.95358631756992
C         0.79450237144386   -0.00532379909326    5.25107361079032
C         2.04297471264417   -0.57883891157879    5.71122718233754
C         3.04497088237702   -0.58855047068777    4.72004704907690
C         4.25528812593410   -1.19531251532817    5.02722278064130
C         4.48553973794905   -1.72595490803428    6.28500112043631
C         3.50134956370110   -1.67711177569537    7.26387603365448
C         2.27472768192978   -1.11655524685711    6.97812512302427
C         2.35233413316262    1.88472409742786    1.21255299734708
C         3.04765909734738    0.79684764621377    0.69408110161254
C         4.21373955620839    0.34238894190547    1.38351532371606
C         4.68687493741330    1.01753627011924    2.51655315747948
C         3.95145967312704    2.08750426464962    3.09149964860682
C         2.74195119540039    2.45974315526399    2.45210793883653
C         2.61004476146747    0.09918992886766   -0.55493317553343
C         4.50542923594861    2.86673384076228    4.26181616887754
C         3.47866028252574    3.00517383865205    5.38717566386687
C         4.99038973973430    4.24058824044400    3.78648313792001
H        -0.12723791299660    1.30808200431719    2.38992613247471
H        -2.30283592027197    1.42961596457230    3.54441267232522
H        -2.47800673216099    0.58379203881199    5.88956549356810
H        -0.45055756030692   -0.37629117713314    6.95228882739716
H         5.02968007754792   -1.27423180717818    4.27514045897371
H         5.43768061721422   -2.18729388842486    6.50711977947547
H         3.69259142800044   -2.09269488523504    8.24232581944657
H         1.50001747935427   -1.09854160512923    7.73075885229220
H         1.50788672828946    2.29703243078914    0.67224297488111
H         4.80026142733489   -0.45967333205808    0.94622507233774
H         5.65141691410317    0.75294281869356    2.93820600005135
H         2.19210431842655    3.32249417018189    2.81729193013430
H         3.45738406289310   -0.08854599303185   -1.21294668370847
H         2.17303814741797   -0.86539816480320   -0.28276308854549
H         1.86070320764143    0.67924844926872   -1.08957701905436
H         5.36492086868516    2.31461511793849    4.65875870800719
H         3.93823766923790    3.47046189154599    6.25590158042879
H         2.63602706302552    3.62008510912935    5.07912422507300
H         3.10771944564387    2.02127199998494    5.67328135507805
H         5.44207856010527    4.78456973369586    4.61243745395320
H         5.73181243117928    4.13269024657004    2.99725628201881
H         4.16079186349893    4.82916884239075    3.40043307223410

