109
CSD_code = JANDAE | q = 0 | S = 0 | Stoichiometry = C36H50B20P2Ru | MND = 8
Ru        2.73439060421444   10.15942266767842    3.60041684982753
P         2.59001174460418   11.72446923510826    5.28289769387976
P         2.74093632651265   11.96138814168836    2.16900122344819
C         5.30155428569758    8.15432598983747    3.58792387982447
C         4.89261424688497    9.77995413926132    3.68235610017039
C         4.13924822261083    7.15646882197722    3.45749955185896
C         4.22121234338221    6.31309908995459    2.17093055606846
H         3.29956731172417    5.74396203234768    2.04986924496226
H         5.04681655600411    5.60904331266915    2.23524203846261
H         4.37061527510653    6.92520644688360    1.28678978923381
C         4.09055128125672    6.14466242364630    4.61803040652496
H         3.16688637872444    5.56891970864103    4.55990457213644
H         4.13797888487580    6.62920069093210    5.58844433836456
H         4.92507053283513    5.45182944044064    4.54767598870153
C         2.84244034697204    7.93741988133699    3.44110369135179
C         2.03008213176374    8.23715443837151    4.56516841383407
H         2.17803650556330    7.86997461229919    5.57084655318910
C         0.80061693729458    8.78047025378089    4.08561959029950
H        -0.07965719478843    8.93917466336291    4.69188141895868
C         0.88303373708575    8.88557149199421    2.69502495932700
H         0.07938580648148    9.14399369644505    2.02032687286295
C         2.16479492080187    8.40958296892450    2.28693131588908
H         2.43257996704656    8.19493373586552    1.26211713163806
C         2.78829011053131   13.51115251057612    4.68197656176923
C         2.86351618627363   13.63543036045336    3.04723821275560
C         3.52197820642775   11.39720305506749    6.84181452430499
C         4.63816650612294   12.03253997750847    7.36721960071928
H         5.06235679556678   12.89454629280503    6.88373359132349
C         5.23430575385182   11.56010912208210    8.52568181523125
H         6.10068025266370   12.07021869684326    8.91809065033744
C         4.73674894819361   10.44416608812962    9.17200193302378
H         5.20878046931603   10.07877995529991   10.07121720603112
C         3.62821243567138    9.79436141958942    8.65361817585465
H         3.23094548568547    8.91873864878314    9.14620653940544
C         3.03596680547586   10.26566351334120    7.50025967909498
H         2.16727263696510    9.75750948966554    7.09942231070971
C         0.96621030541499   11.92437038009590    6.16041395328632
C         0.90746009680793   12.43625202538198    7.45594078599116
H         1.81503535720607   12.72529543427651    7.96460056651801
C        -0.30529228256602   12.57962396486477    8.10325219887480
H        -0.32910962716432   12.97615309557078    9.10738272188418
C        -1.48510191141589   12.22254354201455    7.47115790279639
H        -2.43039606745359   12.33269890820254    7.98086906722143
C        -1.44258870823371   11.72568169547796    6.18129022143584
H        -2.35554102723214   11.44806672570233    5.67456429075828
C        -0.22577339568169   11.58251938648686    5.53891168386253
H        -0.20120622493140   11.19100315881192    4.53336484310735
C         3.82641295028714   11.86675512204218    0.68006709808707
C         4.98666050322452   12.56424444527448    0.37469397884707
H         5.35242724896260   13.33988733377192    1.02385078573428
C         5.70279013308345   12.26639495450652   -0.77378630398110
H         6.60152514571590   12.82218697892895   -0.99323264049052
C         5.28290121181112   11.26437482598884   -1.62836191344265
H         5.84815580020796   11.03421877007387   -2.51854187089855
C         4.13141630754439   10.55339762800230   -1.33100775776325
H         3.79368671049181    9.76511036337454   -1.98806136562919
C         3.41938377206484   10.85102629799549   -0.18750979261014
H         2.51746200070018   10.29591073815170    0.04021778624916
C         1.20798144454196   12.30068798408586    1.17889491812744
C        -0.03627763617096   11.88258405409944    1.62759850411147
H        -0.10616165540804   11.34623828839103    2.56171835664341
C        -1.18706773641466   12.13156072405244    0.90130496475242
H        -2.14295910141479   11.79163554991960    1.27285157041657
C        -1.10879671719131   12.81370573589427   -0.29915606548836
H        -2.00186384735729   13.00743725537983   -0.87398928011979
C         0.12426481535434   13.24826662396370   -0.75713759129788
H         0.19432754872372   13.78889503559954   -1.68928201905027
C         1.27054193039084   12.99907607227047   -0.02613051558493
H         2.22114323697277   13.35171423896420   -0.39763119135126
B         5.49303428213153    8.96790256584630    5.06782431238290
H         4.73511828546125    8.75497376131129    5.94338418086738
B         6.70851265221278    7.79971213896230    4.51710005543162
H         6.77765448169125    6.75175731010388    5.04545572790163
B         6.79882317087538    7.92408135426836    2.76750438011164
H         6.92971306419847    6.96065464070189    2.10658376412547
B         5.63780694322365    9.16728370342064    2.26486749387667
H         4.97622073671196    9.08643674232050    1.29412281901876
B         6.07838664081352   10.55689113264137    4.66763005328529
H         5.72663795061028   11.47821566725696    5.29624646184808
B         7.22287629065368    9.33299888914445    5.22337664767354
H         7.72717353303170    9.39142576519369    6.28623214631810
B         8.04011946074002    8.69306824698086    3.76813697079727
H         9.14199761976032    8.27804780138601    3.79558595882732
B         7.37214908746847    9.53761499297545    2.34146123566441
H         7.98273013615163    9.74174567595942    1.35510992520205
B         6.16784130067643   10.67926271175702    2.94336346679250
H         5.87695623823764   11.68233973184835    2.41749356372773
B         7.65528460286107   10.41363275646403    3.87049890868557
H         8.46638067555939   11.26093829838779    3.97255996299016
B         1.41836743966847   14.11233300960989    3.84066920078404
H         0.48768323485675   13.40767573787336    3.74443858945308
B         1.91907989876390   14.85357803454975    5.34839271673459
H         1.27611633926462   14.68149608919773    6.31351459028626
B         3.66762800959089   14.79049189592958    5.42460066830731
H         4.18203953426765   14.61717682073537    6.46043973878154
B         4.26142865545846   13.99258510594840    3.96134998846428
H         5.12806070690956   13.21146892995166    3.94064428847730
B         2.04787374643498   15.06838164063748    2.51350534163197
H         1.49606377372806   15.04691227806814    1.47925522071364
B         1.44272112687783   15.86587973117128    3.97497570064743
H         0.44350306461156   16.48362177086987    3.97653681577258
B         2.86588274840246   16.29967080205445    4.96024036690991
H         2.87191929324386   17.23100164924826    5.67619983214952
B         4.33764634259448   15.75197836938774    4.09792590470616
H         5.36811898699425   16.30793889271762    4.18701520892561
B         3.79626299594862   15.00636074320077    2.58688805074717
H         4.40193458072073   14.98685978323430    1.58661996654309
B         2.94564944002734   16.43344646550378    3.19885379484354
H         3.00996460229915   17.46189401195429    2.63479510724128

