73
CSD_code = JANFAI | q = 1 | S = 0 | Stoichiometry = C20H36B10CuN2P2S2(1+) | MND = 4
C         5.40558061854497   13.40889778225501    0.50295694132591
H         5.66699827826638   13.08935897754509   -0.50093971013619
H         6.28372395815137   13.87479254163835    0.94580022696500
H         4.62322291280378   14.16615546142791    0.43424384142588
C         4.95015644386385   12.24295895090506    1.37965523560746
C         1.39074186135190    9.58781881508329    4.16606371593152
H         2.04364093837870    8.74137882329801    4.30434398183597
C         1.03853389799019   15.10066134968010   -0.39777346613923
C        -0.17544043172572   11.75189125320962    3.70097595891869
H        -0.76912693254953   12.62540097530058    3.47183733556924
C         3.28325715937887   10.87204890023527   -0.89026660416371
C         1.92810619052575   11.16243015643802   -1.82972672971086
C         6.00883213012220   11.15094088610691    1.47446932893296
H         6.25842927202068   10.73525407459998    0.50400563485313
H         5.67800677711478   10.34037337782033    2.12087410235773
H         6.91511205154613   11.57403120106405    1.90412377693874
C         4.64616767050383   12.78774514254002    2.78236557776388
H         5.52997593616432   13.27410011206455    3.18910954763833
H         4.36160763525777   11.99106463254313    3.46863909190799
H         3.84045371707316   13.52478540011853    2.74903606813700
C         1.61358450691234   10.44656101176371    3.08758108016241
C        -1.34190194636377   11.87591307306292   -3.11521276365636
H        -0.78710892542902   11.12854589893097   -3.67249748656552
H        -1.03321419856868   12.86225011619686   -3.45738982833196
H        -2.39831136621061   11.75527084223717   -3.34821173931188
C         1.18816746969285   16.46026064420718   -0.67763967233852
H         1.17668955085102   16.78917679083611   -1.70404429872941
C         0.34478601435394    9.84554521325568    5.02559149748802
H         0.15643899980017    9.19694903346955    5.86636987077044
C         1.19553047653914   15.49712135953870    1.85730779507079
H         1.18828382102498   15.06206188880183    2.84690022990567
C        -0.45858129652685   10.95867239330303    4.79076008761314
H        -1.28333549327705   11.20010322952779    5.43983281936826
C         1.34496691936237   17.34527427684238    0.36747560905978
H         1.46162900547861   18.40027400628851    0.17624929861321
C         1.34675640800667   16.85388982836655    1.67044655336777
H         1.46204472619136   17.51098164947919    2.51590422763769
C        -2.01838320203853   12.76593274488972   -0.87907191307877
H        -1.87521246239923   13.76813378910154   -1.27941132805466
H        -1.79141796739632   12.78102486203827    0.19037797480335
H        -3.06872264960505   12.50907135744998   -0.99591231748348
C        -1.52911292868124   10.34469365742975   -1.10308966032735
H        -2.57656211686409   10.15109942230957   -1.32525320898533
H        -1.39678382667662   10.28475311722303   -0.02208865345455
H        -0.93858643424080    9.56031544862025   -1.56615351141882
C        -1.14738320996083   11.73518154265499   -1.61056887874986
B         3.40445756588887   11.94884106007363   -2.21631024021677
H         3.48621279367028   13.09004289399420   -1.94631944572964
B         2.88236797539748    8.62379663590318   -2.47436415720885
H         2.67732077572739    7.47223275308750   -2.54268330231577
B         4.10783096062743   11.03440686028792   -3.54837219045321
H         4.78115914137473   11.56090389760052   -4.34974673373788
B         1.62212369287803    9.80789663492035   -2.84727591955007
H         0.51351280903720    9.53545630066949   -3.10193994800065
B         2.17478536445736    9.59443064407902   -1.18571651929150
H         1.46447921811716    9.29598831086514   -0.29530772540457
B         4.67836917318499   10.77314924789767   -1.89451864791375
H         5.69932597292679   11.16310105968724   -1.47768505622012
B         3.00325889877814    9.68620604527446   -3.92908384199663
H         2.87917547421903    9.26653538920714   -5.01593687049162
B         3.92620187455242    9.32388369189279   -1.22118814240976
H         4.42284640793329    8.76138211188459   -0.31850889753100
B         2.35230694707209   11.28816750661680   -3.47882620190651
H         1.72254352414536   12.03745381445668   -4.12603453362701
B         4.43700388516128    9.37138569046376   -2.93108392031075
H         5.34910449813364    8.73940975887006   -3.30716617688222
N         1.04707005453406   14.63469046077427    0.85006714327094
N         0.83495760712472   11.50569437394958    2.86237851798349
P         3.22910088485739   11.69388558330427    0.78453836570542
P         0.59079424208271   12.12970421745791   -0.96147879408974
S         2.97746477576589   10.01556881006642    2.05205132794164
S         0.83191957520222   14.05375082790728   -1.80568490848701
Cu        1.07866594840677   12.63548940711447    1.24985117953110

