47
CSD_code = JANFIN | q = 0 | S = 0 | Stoichiometry = C19H22CrO5 | MND = 9
Cr        6.40050156334113    3.29394359783735    2.87926148618481
O         3.72614110386458    5.33214824389008    3.07063601257104
O         4.28183020816086    5.41766414035631    5.92426481665373
O         7.36078751249269    5.94531553382276    1.92791804280041
O         8.31677208391548    2.46945062394001    0.75891063105922
O         9.01739175347822    3.53606092197092    4.27713100906927
C         4.22922404405862    4.08970757234746    3.11526155530482
C         4.28315189395695    3.19716752651039    2.02655294186591
C         4.79381896776555    1.89809817522007    2.19118297374270
C         5.19447626333616    1.41509299053300    3.45122185932873
C         5.18843124511192    2.30333735815639    4.52281192984630
C         5.49129490635732    2.01364812668927    5.97032949520325
C         5.44664259918462    3.39915376920440    6.63131916338312
C         4.73246770594232    4.32973461514784    5.65606801899962
C         4.70922719137808    3.62819884703852    4.36961414975849
C         6.81072888326086    1.26633261759547    6.17945976368083
C         7.05781758617410    0.91924330034128    7.64629938794415
C         8.36855291664643    0.15389913003403    7.81793635216758
C         8.72135503325159   -0.12471386668297    9.27902807868951
C         7.76734613530477   -1.10257283827423    9.96245362527191
C         3.43933767048538    5.91827260810521    1.81919321430769
C         7.97341232073620    3.40340266224114    3.80082062389294
C         7.54725758496794    2.75552310622172    1.57068990364732
C         6.95261348681281    4.94007627901124    2.31857050038935
C         8.23929010685624   -1.45357024139855   11.36826106910091
H         3.88198129992817    3.48457321936688    1.06386453963735
H         4.74918997564026    1.21383355856390    1.35125638358157
H         5.46997830960946    0.37590345529930    3.57692355518699
H         4.67773752167472    1.39179325487644    6.36993499099505
H         6.45708824535859    3.79194413489756    6.76879778324015
H         4.95128153988469    3.40575399407257    7.60104483644806
H         6.79679351149829    0.34107165925113    5.59889714186464
H         7.63220948143454    1.87892333895762    5.80318011923098
H         6.22622169759599    0.31648112598077    8.01657852249306
H         7.09903399166916    1.83400846985083    8.23981912381655
H         8.30922811146802   -0.79277294593255    7.27545713866800
H         9.17370027765998    0.74014352960728    7.36911188164829
H         9.73088248507559   -0.54077355512443    9.31763327738516
H         8.73242386948582    0.81609560057896    9.83402687032779
H         7.69869637790708   -2.01509136870956    9.36542687199749
H         6.76891806432934   -0.66602531999199   10.02206266997779
H         3.16871732570968    6.94881763002137    2.03967060179951
H         2.59787879730383    5.42291791497001    1.32391790082906
H         4.31820563691930    5.90339378473131    1.16669604540908
H         7.54565603918917   -2.14171238682945   11.84592394842662
H         8.31003830001485   -0.55737933440542   11.98076988253039
H         9.22016837380285   -1.92281455989352   11.33600930964838

