50
CSD_code = JANLUI | q = 0 | S = 0 | Stoichiometry = C18H27NO3W | MND = 9
W         2.92302179338184    6.35173391965394    2.93124458186306
O         1.12052857657764    4.62809979272859    4.50894695021549
O         5.60581572839432    2.25731170293488    1.19642908585257
O         0.79438142877194    6.07409902132756    0.66994955907362
N         1.87595432379606    5.22419155630707    3.81686146056725
C         3.22175777713871    8.66690467048188    2.66348321169463
C         2.51647170227300    8.39082283386306    3.88449875613745
C         3.42129059323322    7.70352950680696    4.76241497559582
C         4.63891467638187    7.49470349047947    4.06645837410798
C         4.50692895239315    8.08536986144682    2.75747187322326
C         2.71735933259729    9.53744888053480    1.55076288786093
H         3.19107820146314    9.28718871796109    0.60279205173844
H         2.93701119835066   10.58423089826122    1.77195734120944
H         1.63985210202005    9.43818575571657    1.42942553575820
C         1.20418225980931    8.99558820398461    4.29513090476853
H         0.55245637588163    9.13869181522761    3.43506939367734
H         1.36874989994869    9.96865063342710    4.76329195640573
H         0.68825180911160    8.35672550099086    5.01028785815387
C         3.15252688113157    7.40999794937328    6.21029690676467
H         2.12776706020645    7.06984420598221    6.35763003318805
H         3.29830586552516    8.31366491845979    6.80582612930341
H         3.82335302853618    6.64128053563276    6.58889426026929
C         5.94041787656650    7.08344862886604    4.69275404908644
H         5.78404742062074    6.38386754431713    5.51175431497925
H         6.44349548116697    7.96531178979589    5.09690929882215
H         6.61402312676350    6.62542501704700    3.96958298945290
C         5.63920491831197    8.30516284285790    1.79333650164573
H         6.35110341846982    7.48030267830865    1.80863270098953
H         6.18103644091164    9.21583707746666    2.05961702296166
H         5.27520092296393    8.41970006389792    0.77282448390796
C         3.72111408937275    5.09533784617615    1.18931628478858
H         3.14502197136574    4.29792408722094    0.73386721861885
H         4.17344360162065    5.76278541441437    0.45418850915011
C         4.46503352051406    4.80673460481263    2.36392679401074
H         5.45134022548199    5.27399235492021    2.42337306766647
C         4.48200315642811    3.40482382054732    2.97569382092924
C         4.62729649250177    3.49894262603646    4.49547656608851
H         5.47239030797273    4.11702893817531    4.78465470648879
H         4.75159951074741    2.51125727720340    4.93417491894165
H         3.72182295560712    3.94225083806430    4.90801845952935
C         3.24155866161218    2.57669752599314    2.62662834013472
H         2.33016588546477    3.15237563268825    2.76927678490562
H         3.20140284366539    1.69742861893207    3.26554797798059
H         3.29376724709627    2.23908736340055    1.59488992691851
C         5.69872312247749    2.76830085348631    2.28460328388082
C         7.02639942816148    2.85874641755237    2.99661555176621
H         7.23208844962996    3.87442962157781    3.32269827826150
H         7.81590596664195    2.52277337337261    2.32875812802478
H         7.00839959353732    2.21663171476099    3.87429080731233
C         1.57423379740510    6.19263105651718    1.50506512532806

