78
CSD_code = JANNIV | q = 0 | S = 0 | Stoichiometry = C39H34N2NiP2 | MND = 4
Ni        6.37670571580349    4.96338998478028    0.05354177239591
P         5.04053901969957    5.25928631016176    1.68549117869658
P         5.36229913064632    3.26818916696593   -0.77868471132315
N         7.59667043880399    6.05948801750646    1.12526109922151
N         7.45663618515268    4.95310878997694   -1.56309646299171
C         6.13816881005004    5.78676441973030    2.99604234661277
C         5.84975652112957    5.85062690956456    4.34811663220423
C         6.78105177142864    6.38855355611173    5.21509046908884
C         7.98664558325555    6.85873130828370    4.70206604023385
C         8.28497331035051    6.79541393398509    3.36066663833764
C         7.37020588711650    6.22913942114767    2.44250638150726
C         8.64128296113145    6.86457541995607    0.53099298558584
C         8.34752783262925    7.16106691324744   -0.93839464389252
C         8.49781089574418    5.92453263813050   -1.81625135445441
C         7.36879575590427    3.91806054530365   -2.41706272366127
C         8.23578491070130    3.68249127487292   -3.51309882570488
C         8.00490837485272    2.64966555850359   -4.39017445949075
C         6.92389051800747    1.78342662208784   -4.24575141080001
C         6.07455188800228    1.95577430677751   -3.17175993152504
C         6.29800898156761    2.99254861587257   -2.28072745437232
C         3.79246825883694    4.18524692214417    2.44013090302347
C         2.43167625673177    4.33947248752340    2.19921102429124
C         1.52780275853371    3.45392796349562    2.75870296958522
C         1.97481904868092    2.40057478539230    3.53927415193728
C         3.33237612294363    2.23238139400720    3.76660999863051
C         4.23848295399889    3.12038881452286    3.22019586835274
C         4.12566650056494    6.75504024825933    1.20301439406197
C         3.41952099186721    7.52736080124399    2.11830493072053
C         2.79164677604039    8.68424452700465    1.69501292000403
C         2.87269042507487    9.07574587355080    0.36698407561511
C         3.58694884398690    8.31440600188616   -0.54439441903953
C         4.21431946686790    7.15510160325801   -0.12634355771976
C         5.87301032531041    1.88789551740988    0.29071495635365
C         5.39621575366918    0.58850637160810    0.15758754160892
C         5.89453403812271   -0.41143389793656    0.97288171467039
C         6.87640372165942   -0.12771115147066    1.90890998306075
C         7.37555770346658    1.16016615361704    2.02483854908964
C         6.87598643934964    2.16381344957441    1.21705645174386
C         3.61806966113199    2.97013412605713   -1.16592778107687
C         2.75149679902031    2.34490715517869   -0.27504880727490
C         1.41226393886551    2.21385571265135   -0.59428181232640
C         0.92680550062193    2.71569126766110   -1.79077824818340
C         1.78328276455855    3.35605398454315   -2.67281531128642
C         3.12226344672627    3.48926115704894   -2.35963984962604
H         4.89932051803193    5.48341739806479    4.71357955871204
H         6.57652922412863    6.44801926101808    6.27310323568049
H         8.71742818670843    7.27966900974382    5.37921756719478
H         9.24807114741795    7.14451924231821    3.02194635606452
H         8.70930394587238    7.82758268707323    1.05865404008985
H         9.61620231117215    6.35749815948116    0.60580241776774
H         9.03561778220240    7.93260579022083   -1.29008805279505
H         7.32298800679648    7.54089342387054   -1.02293605629752
H         9.49791083728486    5.48962449223278   -1.65472027410151
H         8.42990130695291    6.24753207891273   -2.86678194502815
H         9.09736698508992    4.31239076800770   -3.66917913301932
H         8.68677208116322    2.50582100910049   -5.21743518098329
H         6.76381589406943    0.98362389570601   -4.95250926815003
H         5.23192003466169    1.29381721198986   -3.01940021511079
H         2.08293763555039    5.15091211867770    1.57578239299022
H         0.47033872882201    3.58398589272347    2.58005135865883
H         1.26612758898488    1.70878843090949    3.97035207350017
H         3.68284073873599    1.40729479319050    4.36937944893035
H         5.29936421365000    2.99915918821921    3.39300304042276
H         3.37318890193124    7.22029239369992    3.15402622567391
H         2.24061226418538    9.28751571565417    2.40184738850020
H         2.38061396980568    9.98137297635102    0.04370345849877
H         3.65447811688801    8.62775103462882   -1.57598183449628
H         4.79091303370486    6.53993496015415   -0.82393345802057
H         4.63801506074693    0.36202196508889   -0.57858242575337
H         5.51791444904945   -1.41952442161313    0.87587898163091
H         7.25701525614417   -0.91359227548326    2.54459886375349
H         8.14948113006623    1.37921506795024    2.74615417921513
H         7.26385150787848    3.18518586536838    1.28953649612931
H         3.12657664156586    1.95631435901788    0.66101299044214
H         0.74462501927336    1.71987698648607    0.09664340180623
H        -0.12013661039351    2.61152819372849   -2.03486005470611
H         1.40392537272111    3.75206604684753   -3.60351394861903
H         3.80214573056252    3.98672129948359   -3.03872584042176

