67
CSD_code = JANTAW | q = 1 | S = 0 | Stoichiometry = C24H38ClOOsP2(1+) | MND = 8
Os       14.80678568374481   12.51721071501121    6.02106663478274
H        15.91570105768652   11.56398899683375    5.44485095152629
H        14.35902182524071   11.53161115345279    4.88239604734179
H        15.27192242664309   13.18954846490597    4.67106980740100
H        14.90078739908719   14.07165115375358    5.86983295340238
Cl       14.28581554733066   10.72277608658123    7.42789007651302
P        16.81201712759780   12.75201084671630    7.49016141097330
P        12.33340469803112   12.77688912140652    5.78016046265070
O        14.07459242531934   13.44739550126149    7.94406599171869
C        14.84006737816165   13.81499671338948    8.99168340061980
C        16.20804347093112   13.60757101943554    9.00606334508356
C        16.86296582006699   14.10355846571608   10.13071219433939
H        17.93471016917614   14.03057782067046   10.22490963500658
C        16.14048357318996   14.72739090509718   11.14742653533264
H        16.68444165598674   15.09215743688316   12.00509701202284
C        14.76661311804868   14.91172365097155   11.10318861576423
H        14.25148879055561   15.40828181777256   11.90949067569863
C        14.07899483346700   14.45498948352509    9.98412495129468
C        12.72370489507201   14.47162042030120    9.46176045767332
C        11.47282850747789   14.95318917425427    9.83237100830203
H        11.32373433607874   15.44661339194918   10.77913285139325
C        10.42158361430072   14.79838794153959    8.94105548038971
H         9.45115570415537   15.18405228500644    9.21326564829596
C        10.55453724647179   14.17723548381989    7.69944746998216
H         9.69571557748210   14.12677799354762    7.04919336735074
C        11.78359442032785   13.65539648834518    7.30351242288502
C        12.81184151155863   13.83820361706579    8.21103692239594
C        17.55725258840317   11.17589133282734    8.16061219064934
H        16.81294472127257   10.82564306084890    8.88877696514558
C        18.88135208591426   11.40911229126848    8.88238454057019
H        19.17998301218175   10.48267718569942    9.36927252866379
H        18.79997081080937   12.17158757701841    9.65256208740102
H        19.66876018448306   11.68487913803109    8.18477437643102
C        17.71365448211988   10.10803110890305    7.08125380009569
H        18.35876578353633   10.44182974682841    6.27227537317924
H        16.74988202892103    9.82354776766875    6.66601955893208
H        18.15755540792077    9.21816434833977    7.52262118771447
C        18.19441184327160   13.85617454685017    6.92527040394177
H        18.93841535956524   13.85934419485525    7.72995961837532
C        18.81231681206934   13.31689635365435    5.64049268456505
H        18.04351122503051   13.17446654609662    4.87967943686477
H        19.31993443307556   12.37013871536208    5.80557010356694
H        19.54419884660922   14.02527515634714    5.25864326405208
C        17.68021770717542   15.27823290180905    6.72403301143740
H        18.51016185192794   15.93317683437941    6.46898781524231
H        17.21019825625543   15.66580747277921    7.62707141012969
H        16.96110206555010   15.31446844493449    5.90773190760941
C        11.31804126640626   11.20947728864172    5.81841379585497
H        11.39561865435042   10.87535987812910    6.86228923280805
C        11.90190575238161   10.12138055622256    4.92122270829820
H        11.26410666194422    9.24117939950582    4.96824391614441
H        12.89398973545613    9.82668987827704    5.25463169205499
H        11.96167085467224   10.44062965041204    3.88364750733280
C         9.84837873444605   11.45136540283956    5.48633891598245
H         9.71772959193555   11.71251660743362    4.43869948254958
H         9.41036261695449   12.22796164865474    6.10796885126253
H         9.29395209065123   10.53308054861299    5.67038117598481
C        11.68214515419720   13.86378546937434    4.42307814657912
H        10.59235860411651   13.88560623440658    4.53725716329036
C        12.22444568783549   15.28036906097233    4.58687156347077
H        13.30353222065094   15.29671648587620    4.44571406648113
H        11.99031557585143   15.68709339756140    5.56989827244084
H        11.77787750302152   15.93083593471143    3.83836037619558
C        12.05564314378362   13.29441096283073    3.05939127936636
H        11.76959636897332   13.99460926997349    2.27761937400529
H        11.54865699449667   12.35291436300336    2.86483925059702
H        13.13263046858168   13.13206708884397    2.99677463458953

