47
CSD_code = JANVOJ | q = 0 | S = 0 | Stoichiometry = C11H24I2O7P2W | MND = 7
W         0.13113871422607    3.89011480784893    3.08329961796246
I         2.00367280113600    1.86535643953646    2.71922202816939
I         2.03803753890653    5.81983757966651    2.37726999975857
P        -0.25126747811614    3.67423105437165    0.73142638853360
P        -1.19421577584991    5.92173032798081    3.13985625158718
O        -1.64062410626881    4.43391338737371    0.44313910622782
O         0.55846211169851    4.17108842462288   -0.58710199304939
O        -0.49838848647029    2.10481295847402    0.41818582350276
C        -2.24603393010550    4.66629227294653   -0.82548707881267
C         1.89576238967851    3.73743423392609   -0.83212216904119
C        -0.72764500615141    1.52581232768023   -0.85835912588721
O        -2.59269389839210    5.39313656406965    3.72620047653820
O        -0.81597251150257    7.21295348419666    4.05330208435753
O        -1.74698610905550    6.79442872053183    1.90734238721614
C        -3.70482162473055    6.26890750654924    3.90672617827722
C        -0.12924497564323    7.15330630881769    5.29257792264516
C        -0.91965966574684    7.58427700004020    1.06563546264059
C         0.52867426892709    4.07400819709256    4.98942474038825
O         0.65751616457407    4.14319974957361    6.14426727630801
C        -1.60268034615234    2.39270409923971    5.73241151461345
C        -1.16479628760816    2.88008731523716    4.40089355401623
C        -1.58309319099357    2.73194467981037    3.15701081033094
C        -2.72933785374512    2.02092462409486    2.53827829438412
H        -2.82230541107493    3.79431283082541   -1.14056661348949
H        -1.49674175082327    4.90377196782723   -1.57981858884280
H        -2.91419536286441    5.51670028773956   -0.69216610863247
H         2.05785443507926    3.83347168569401   -1.90530067888918
H         2.04319790641238    2.69911936267179   -0.52985810323052
H         2.60553399700069    4.37405803485683   -0.30156744312982
H        -0.10839721034246    0.63010674626150   -0.92608515701239
H        -0.46653313596516    2.21146784706774   -1.66678821132653
H        -1.77960540378596    1.24660697875963   -0.94650316230456
H        -0.36332109194946    6.95559723902501    0.36678670588358
H        -0.22093708512559    8.18538177686664    1.64888381620207
H        -1.58947445693072    8.23957110095936    0.50916049915080
H        -4.31041902246155    5.84754368705309    4.70851859796607
H        -4.28880773495707    6.32127615400160    2.98803993649110
H        -3.36959525002423    7.27076042553459    4.17900908471218
H         0.90241989430897    6.82250621470354    5.15555079331920
H        -0.63719144698154    6.49345667505620    5.99744715898136
H        -0.12621658010632    8.17041992045766    5.68347528682995
H        -1.63154264604468    3.20226758862187    6.46405328485728
H        -0.90082135475706    1.64235341437988    6.10390297202633
H        -2.59486326844706    1.94124077630051    5.66187450152504
H        -2.38218636359819    1.09768226486891    2.07031409899307
H        -3.19341938276387    2.63842314308308    1.76796001892628
H        -3.48213501641687    1.76820181370610    3.28997776033633

