88
CSD_code = JANWEB | q = 0 | S = 0 | Stoichiometry = C30H50N4O2SiTi | MND = 9
Ti        4.40809275536824    8.75072641651956    5.84709517068704
N         4.34434995260138    7.20059364327712    4.60461502443867
N         5.83471705761110    8.78941908588823    4.20263407025081
N         7.89235703141740   10.92950311881914    0.19829783990157
N         3.44465050758657   10.27110486341461    5.23349450005056
Si        3.12022241191443    6.01116682199501    4.24586955513593
C         5.30868211918424    7.64917175684746    3.81986293385699
C         5.76319326967072    6.88687831947155    2.62591741460057
C         6.80609180522657    5.97403493540055    2.72490104465295
C         7.22241589354025    5.26777790718761    1.60980520427887
C         6.60117192620192    5.46739913813864    0.38907850472419
C         5.55802054849091    6.37256062187112    0.28543322940212
C         5.14004928806037    7.08096936072908    1.39781732406221
C         7.01966536796399    9.28816561051441    3.51935686149202
C         6.75262615338969    9.96804079703182    2.16995502564112
C         8.04773767344713   10.53234856785250    1.58708186516155
C         7.03715386384837   12.08889270589420    0.04854947326523
C         9.17774388254041   11.15336168054306   -0.42982295958780
C         2.44779031391980    5.37457630101990    5.91421959142079
C         1.74169349956647    6.79772878087056    3.18011118870586
C         3.82654233425223    4.48041080338141    3.32721948125814
C         2.31857358949679    9.51691068359867    5.37172473954855
C         3.43824611145614   11.41684682864631    4.33454002385048
C         4.79421991617338   12.12410610673651    4.45985643669542
C         3.20189669916037   10.92156174687315    2.89722694855063
C         2.32779405732678   12.40147700844324    4.73486122237053
C         6.45760968745400    8.28805216342315    6.96099842456685
C         6.03003935958793    9.61157004960532    7.26442824333111
C         4.79191147203589    9.50952769173921    7.96044332722646
C         4.47958884937428    8.12492862593476    8.11261422387792
C         5.49139170238705    7.37639262851024    7.46663108259835
C         7.81267138271349    7.86835250575702    6.46859416222424
C         6.86955749379272   10.85359785566914    7.15362841155832
C         3.99717822749461   10.62689442500729    8.57496003911307
C         3.33312484724534    7.61911257845348    8.93565338539749
C         5.66895500004165    5.88518320854610    7.45299508221704
O         2.62415065874680    8.50695160652042    6.17371818058959
O         1.22545902463447    9.67233812392230    4.85321885557779
H         7.28568259708849    5.81049098938024    3.68043730444745
H         8.03246614838577    4.55836934393298    1.69531265484677
H         6.92695935714954    4.91567696782419   -0.47999561975704
H         5.06856497659766    6.52769567121576   -0.66453717446517
H         4.32221397613072    7.78360547068252    1.32361292532622
H         7.50211475488003   10.01638035678397    4.17991778380699
H         7.72910290310116    8.46399303300414    3.35372761815362
H         6.02631138231618   10.76572177014771    2.31034840487848
H         6.34608221822334    9.24628979891032    1.46148490005793
H         8.40376968378187   11.37304309061656    2.21308177306889
H         8.81125968949326    9.74917046144625    1.61629594487842
H         6.96941168316844   12.34314969897486   -1.00790082720143
H         7.41583266873155   12.96709563335222    0.59654966996437
H         6.03772970983103   11.85519170510045    0.40699870394156
H         9.02248109692767   11.39329050743630   -1.48053401132411
H         9.74487024322070   11.97519242052124    0.03648705431614
H         9.77198401274364   10.24270382533520   -0.36805872426244
H         1.47687421621328    4.91283320645698    5.76699166893600
H         2.32140494047120    6.20429446656886    6.60171297945310
H         3.09399505741371    4.63183440568677    6.37251928385262
H         0.91107396537664    6.11094826744021    3.04912991260644
H         1.35606855979459    7.69248796334209    3.66474700313806
H         2.09191549204544    7.07843706112425    2.18968751738430
H         3.11703228205687    3.66304265071363    3.39462719808619
H         4.76209912064800    4.13697081510417    3.75723922899862
H         4.00224162795071    4.67303957221169    2.27489895673292
H         4.91916560464306   12.85214731010639    3.66066606913815
H         4.84810630462825   12.64855459142470    5.41222965869755
H         5.59439381495162   11.38929112593218    4.42011509608475
H         3.32212426512158   11.73086159086447    2.17941992611958
H         3.90374657043584   10.11759421907557    2.66979318559487
H         2.19057103414990   10.52773156055434    2.82256795399825
H         2.35728493779697   13.27724096365131    4.09049941924750
H         2.46409737932082   12.71423086304470    5.76879508343479
H         1.35878737492343   11.91970782008701    4.64475338210767
H         7.73582198319641    7.10490306799149    5.69398481731819
H         8.38515389636015    7.44281703651973    7.29765106208865
H         8.37392396982965    8.71064281842404    6.07248786269723
H         6.25027633187196   11.74791786020238    7.14459662241711
H         7.54156026896089   10.91906696268348    8.01415241821305
H         7.48178490595028   10.85027796643129    6.25341195712692
H         2.92917680580185   10.45838526006867    8.42487190175535
H         4.18580163859805   10.68245948433736    9.65082592963972
H         4.25993012426483   11.58695546194351    8.13242969315715
H         3.35227036533154    6.53475406673704    9.01615111723542
H         3.38484213334690    8.04147911612243    9.94129351074567
H         2.38226207584723    7.91715752769074    8.48949599280184
H         4.86345589230877    5.39225098327561    7.99097284169773
H         6.61440921715891    5.61658883879573    7.93092935014131
H         5.68267500654239    5.50159927666589    6.43083788598096

