81
CSD_code = JANWUR | q = 0 | S = 0 | Stoichiometry = C24H47ClN5NbOSi2 | MND = 6
Nb        5.87756290195995   -0.54615336715152    4.53950051032870
Cl        6.87764317747246   -0.61213119997002    6.68645268941055
N         5.67748647314673   -2.30601625378570    4.46027832238883
C         5.32562679636583   -3.67325322487675    4.53587317785260
C         4.72847247962128   -3.93414609695857    5.93504201851701
C         4.27426470419795   -3.98223654884501    3.45157332645788
C         6.55027944865585   -4.58652008014970    4.34764321766609
N         3.74194663673156    0.11375705670940    4.95654931437259
C         3.70003811692054    0.58925764176186    3.75342841557622
N         4.71774011791072    0.22983115266584    2.99498942200312
C         5.25329020258752    1.08782713370606    1.98621732205491
C         6.36509288244809    1.99094089134814    2.59191190039851
N         6.01940517053002    1.84804428289604    4.96696838074114
C         5.61325696432630    2.29909151933468    6.14402170154741
C         4.95615126704633    3.50780216447605    6.29663923558523
C         4.68859836295656    4.25186920209208    5.15849029554165
C         5.12885281332253    3.78505613403865    3.93265084153317
C         5.81753270565617    2.57635808418982    3.87214226419411
N         7.48186218125374   -0.17814410117402    3.37408719422761
C         7.65423401073418    1.17722861937484    2.91033229855137
C         2.64260379628747    0.04419677331589    5.90500361511264
C         3.25448461064467   -0.42277287636876    7.23330759819601
C         1.94166125055437    1.39380043549668    6.12174715627664
C         1.63078998064263   -1.00178016542335    5.41321739784267
O         2.69729328076143    1.36170490975356    3.27984664264078
Si        1.69879433813239    1.01937237127677    2.00479765940033
C         1.91865323378837   -0.80295716208155    1.49404596813860
C         2.07077140553151    2.20012736663869    0.54937920236332
C        -0.04717129471790    1.42301999283673    2.64781165306835
C         6.73098614123822    3.07818939607906    1.57576525184534
Si        8.58378695123920   -1.37901190523150    2.76137074180137
C         9.26693144699302   -2.35498472012921    4.25610481760826
C         7.60675369486375   -2.42661977529794    1.48147008850001
C        10.08815990420739   -0.62116596298980    1.84250094408779
H         4.58788153241761   -4.99926335927379    6.10121625184105
H         5.41145802595943   -3.53609367617977    6.68443369084634
H         3.77107670762055   -3.42820680641689    6.02931182763483
H         3.85086467954128   -4.97300683168118    3.59773214501178
H         4.73362818684377   -3.93184934498200    2.46780508909514
H         3.48278657654073   -3.23623349351092    3.50242287857034
H         6.23740327905663   -5.62763668037677    4.32135118298565
H         7.23949587395650   -4.44173498310067    5.17419319487599
H         7.05824625160169   -4.33645064594098    3.42281822278377
H         5.69117979481208    0.46418446758410    1.19737534926434
H         4.47869869381711    1.73339757638387    1.55358033089906
H         5.84427930873960    1.66045102277784    6.99023834893932
H         4.65171655909348    3.84704163445080    7.27474163165096
H         4.14776696646171    5.18511963513708    5.22297416703738
H         4.93238267584409    4.35442744929568    3.03894750635058
H         8.22702547039439    1.75560337629976    3.65854731158139
H         8.25040185484418    1.17843240591690    1.99160292655687
H         2.47200476941308   -0.70982657662342    7.93210468436710
H         3.84479767141999    0.37389263527529    7.68197682604352
H         3.91359665583826   -1.27329126126030    7.05483664789795
H         1.20956455728815    1.29626483066850    6.92084340591432
H         2.66703862407316    2.15414648735270    6.40704303846251
H         1.43592820345565    1.72335412984350    5.21916445815263
H         0.83551633152560   -1.13430790214355    6.14342882138473
H         2.13906084521519   -1.95228241818731    5.26053723478220
H         1.19416188036403   -0.68906860878322    4.46793083406589
H         1.82491062847837   -0.94522197508043    0.42199102488999
H         2.90839840775387   -1.14779233815973    1.79339930662559
H         1.18956945368956   -1.45343631214994    1.97024446562517
H         1.17948822865440    2.32003469588175   -0.05822034210410
H         2.85561202343018    1.83000308207426   -0.10467016992000
H         2.36132179493565    3.18993032652481    0.89295180519669
H        -0.77038761657524    1.29506002463636    1.84978118440531
H        -0.11320882678860    2.45402800901810    2.98379118912848
H        -0.35684750449265    0.79010616158277    3.47406024311246
H         7.46090737385140    3.76677892788736    1.99820938997192
H         7.16372287805704    2.61900528649668    0.68929271431056
H         5.85778918585297    3.64394055763125    1.25811232728879
H         9.56392731231807   -3.36135192357211    3.98258773791659
H        10.13395898619121   -1.86333130238050    4.68821591271123
H         8.49859772480225   -2.41773335110472    5.02491702270958
H         8.01482675865384   -3.42468987340615    1.36484425386075
H         6.57498748969801   -2.50348671289911    1.81930647261814
H         7.60982196860999   -1.96080875467228    0.49959618558689
H        10.81982492100690   -1.39372478206161    1.63425531722853
H        10.58038352981739    0.14232440859503    2.43594238902215
H         9.81109715174821   -0.17787890489585    0.89127297708472

