59
CSD_code = JANXAY | q = 0 | S = 0 | Stoichiometry = C18H36N2Si2Zr | MND = 8
C         3.33328309631810    5.07063553995813    5.14005073777815
H         3.17799116791652    4.75244537262465    6.16562852031132
H         2.50989605460016    4.67734003266567    4.55315066995834
H         3.26446701071623    6.15357214981860    5.11371691483413
Zr        7.52534615492809    5.86816625047261    3.47925681043131
Si        8.74837300872639    5.31459668701354    0.74348574329976
Si        5.01189994549243    4.43835708397530    4.44725724054941
N         9.20554233881467    5.22683256180706    2.39976561864341
N         6.52135115799102    4.96801480876347    5.10778390084855
C         8.16032968068443    7.95900432372919    3.97362928426443
H         8.83409167455605    8.28509941983493    3.16078610463523
H         8.69872497893131    8.18113388272246    4.90928453155027
H         7.29848262283683    8.65151916987811    3.95004833715612
C         6.89362802527717    5.53834421662064    1.08409608783313
C         6.25218600234611    4.55465862550009    1.87901687742454
H         6.43533286732029    3.48394921225100    1.81255289939601
C         6.32232019321302    6.78311333976793    1.46386047881249
H         6.52478673817040    7.73508979827355    0.98064312354069
C         5.35075965659901    6.55399167310187    2.45936397662030
H         4.67004034654532    7.29768189067315    2.86768319865568
C        10.82410307248354    5.09851132078388    4.18987534440315
H        10.12111034847179    5.75230772395131    4.71849279091385
H        11.57584859511865    5.72455024237221    3.71268827101367
H        11.31977359688794    4.43454339974654    4.89619615981076
C         6.71390171663688    5.31209126863256    6.50747012608330
C         9.47029526713288    6.89383996682385   -0.07410479785944
H         9.35525238078666    7.75329259584406    0.58056581907848
H         8.96974058032532    7.11572176015261   -1.00988760214430
H        10.52765058571038    6.77999115834914   -0.28773588398061
C         9.04101435573806    3.86451322898819   -0.48055212310752
H        10.09304500708591    3.76901651220798   -0.72491836390396
H         8.50564085227734    4.03771923123465   -1.40799244564909
H         8.70073726445186    2.91443475180651   -0.08121529460742
C        10.06413865752589    4.30523308715636    3.10257645162893
C         5.28460611157399    5.15290460936403    2.71792773640323
C         4.87961578945744    2.51840847062549    4.39728916922273
H         4.59346877972421    2.11898905014007    5.36451777184630
H         5.82545649874226    2.06092032960605    4.11979833518979
H         4.13275219251286    2.19897230841911    3.67891807293616
C         9.17185185669627    3.22299434450896    3.76987758631861
H         8.36052458043801    3.71130036333377    4.34453331922772
H         9.75740500333172    2.57731374561181    4.42474653120882
H         8.72345036119236    2.60552772465600    2.98865757025202
C         8.22146689115925    5.43659611653098    6.80964653307281
H         8.64855349412696    6.25751961840447    6.22542083170357
H         8.73398131035131    4.50311400868595    6.57561828547778
H         8.37205390188641    5.65107993968686    7.86668379697290
C        11.10102411353379    3.61135354208252    2.20743498720327
H        10.61135202098794    2.94722668075445    1.50372007107593
H        11.79687812272987    3.03354106482742    2.81192023409025
H        11.65550780595641    4.35844773400226    1.64645725399026
C         6.13590145944207    4.24019146455397    7.44551765203684
H         6.57540851133536    3.27375728473537    7.21119859841435
H         5.06151537248902    4.16644862472840    7.31635633022035
H         6.34724561829486    4.48460506024723    8.48407512027054
C         6.05303970854698    6.67336374816647    6.80759656811892
H         6.36764727438183    7.39856139766309    6.05077123634249
H         6.33234585164363    7.03524328469484    7.79518930618525
H         4.97256236727463    6.57550719459981    6.76540759366067

