97
CSD_code = JANXIG | q = 0 | S = 0 | Stoichiometry = C36H54N4Si2Ti | MND = 10
C         0.97097220091824    2.53913079523606    3.39711431249444
H         0.45192939461762    1.62390177782296    3.11872933944669
H         0.71899764068332    3.32708467541112    2.69050341833738
H         0.61239606234990    2.84799356753786    4.37644806063533
C         3.41157002509867    6.36880973496329    6.27780826648642
H         3.08583129036902    7.32406586870342    5.87900998102483
H         4.49271957963827    6.33003588787229    6.19690054501860
H         3.16624613237529    6.36541864620396    7.33520410967478
Ti        4.21466860051951    1.65243071141368    4.86372652515093
Si        2.50745012152509    4.90872752080682    5.42329986641255
Si        5.87087479144441    0.57821137662600    7.00080520170544
N         4.72977269988793    2.93477419516878    3.62083621307531
N         2.96546965428216    4.65199595555274    3.74438621207312
N         2.95126763325724    1.01126924137691    3.57239791611382
N         5.71987538929025    0.53194220673983    5.26636039352139
C         5.79380797960208    3.42429437796664    2.85255530027823
C         5.91755634807781    3.11691249644816    1.48169943203432
C         4.98925411573076    2.16783300957283    0.77788594964788
H         5.57056560070752    1.36246721129049    0.32793275974456
H         4.44788095374638    2.66488873996166   -0.02701403824822
H         4.27762825798425    1.73496952998744    1.47458321891055
C         3.02461943469535    5.69945845360135    2.71601918793449
C         3.38775136105202    3.31834738412174    3.47011790279966
C         6.81925990550350    4.18800384193149    3.45054030366237
C         2.39307776791465   -0.09779948410704    2.94695944164932
C         6.65498769045553   -0.13847054405759    4.37622492298182
C         4.30303492542342    2.99169612375896    6.69441047593738
H         5.08683640091001    3.71646960384516    6.85985615878010
C         2.99587947650781    5.07586467455274    1.31945323982683
H         2.12175870441227    4.44114254041071    1.19527850334465
H         3.89170844429915    4.48799315309664    1.15584668854913
H         2.95916870612416    5.86096036886871    0.56760342775697
C         2.20848627112205    2.14753535002759    6.48022306771323
H         1.13639124145752    2.07061594868778    6.35405637748128
C         7.86302703651149    4.68540012019536    2.68916821942127
H         8.62907058321647    5.27647351027440    3.17043028565006
C         5.94953413774363   -0.47485501292900    3.05270703692483
H         5.21806937238478   -1.26942932302932    3.19499126542346
H         6.67561925624988   -0.80177042751138    2.31054760096667
H         5.44121491736992    0.41926268093801    2.69070279460062
C         6.97051630898736    3.64550402250322    0.74523326892515
H         7.03307442095130    3.40695173990386   -0.30715379340826
C         1.95107108530172   -2.49077961869158    3.00113098945096
H         2.00434579535401   -3.42964625210670    3.53454490301293
C         0.63966718067678    5.28510858455129    5.68059956095368
H         0.01937454452739    5.03992670193500    4.82615287365154
H         0.49438429378014    6.33912199557729    5.89290953963705
H         0.25522844711326    4.73611813475664    6.53467499352505
C         2.98633328280667    3.31149491176662    6.27425915358229
C         4.33742206607675    1.65680991067553    7.17346271424616
C         7.93302391602962    4.44293290019288    1.32908070903863
H         8.74014740778852    4.85076224441520    0.74003511029327
C         1.82946057474125   -0.06649231387129    1.64954954344109
C         3.02909966895742    1.14570177286683    7.00628003830308
H         2.69388024624358    0.18451248486591    7.37360479769240
C         2.44629058149360   -1.34962299331427    3.60560618946225
C         1.80723122377718    6.61721201040079    2.85859213945960
H         0.88797090941416    6.04539450189554    2.77027511522995
H         1.82259199028572    7.37216596856371    2.07584950081215
H         1.81177241604387    7.11897001373716    3.82001526009160
C         4.29909103693395    6.54388460891030    2.85004998364592
H         4.33277160495425    7.02419585970372    3.82219587026062
H         4.31684261711067    7.31345563893944    2.08160425484006
H         5.18244300211937    5.92304764553823    2.73342867106744
C         1.73320755625631    1.15386744309027    0.77176838676990
H         2.20203384400036    2.02637680239640    1.20876995407640
H         0.68706188431026    1.38902402310290    0.57185491923371
H         2.21152092567796    0.94580912629243   -0.18535127869002
C         3.00252325720828   -1.46985906893484    4.99477939403038
H         3.81653039393588   -0.75286728717566    5.15611974654486
H         3.36916472744166   -2.48177386346320    5.16431675193201
H         2.20830820435722   -1.27896359745138    5.71965183503245
C         5.62873066497479   -1.07598725836092    7.94954848000938
H         6.54687747011406   -1.65150320770928    7.99335095604043
H         4.86770192474256   -1.70152472630615    7.49391123307607
H         5.32139151408609   -0.87865016447199    8.97168348770642
C         1.33428729261179   -1.23624782522112    1.08579668458834
H         0.90493803577346   -1.18135944108808    0.09496292468919
C         7.18471651407714   -1.44584088794748    4.98444237201548
H         6.35621384111073   -2.08110739457662    5.28530962510485
H         7.80074136975611   -1.23905882567175    5.85459500751620
H         7.78686486515144   -1.97863425662389    4.25190172223234
C         6.78614108034462    4.43406988837908    4.92471697626743
H         5.88332032403480    4.98314630363360    5.18770812428331
H         7.65514163088325    5.00701570153482    5.24124414203046
H         6.77555106786368    3.47124310556530    5.44281206673025
C         1.38416872181268   -2.44791457389044    1.74072648307270
H         0.99445526754325   -3.34208801678185    1.27897258230434
C         7.45620634914877    1.37307787728552    7.73917968557308
H         8.31809671682524    0.73095701208151    7.58765580389156
H         7.34448451194583    1.51636458088703    8.80876394053027
H         7.68316627360531    2.33914996316446    7.29970996954495
C         7.85186526541635    0.78301119230422    4.07787298617432
H         7.50811796681014    1.68298354202371    3.57196008593558
H         8.57435413412071    0.27631651783507    3.44169061852951
H         8.34213931323651    1.06509769939784    5.00609013625177
C         2.46091236389149    2.29498265365284    3.43239292482480

