105
CSD_code = JANZUT | q = 0 | S = 0 | Stoichiometry = C41H57IrN4OS | MND = 6
Ir        1.22135254221718    3.84791495894331    4.22311132164942
S         0.01994963725471    4.48028539412259    2.05727312010077
O         0.76522668553478    5.03281554754615    0.93052967039509
N        -0.57035713747330    3.17973454810278    4.91482685435696
N         1.56958520248482    2.02768384719682    3.39279243826397
N         2.95611576551392    4.53595679960364    3.44714379485756
N         0.81204326506544    5.69317493306030    4.95861831377696
C        -1.48746738980203    3.90094283431063    5.61430299253575
C        -2.64188800029568    3.08364467345179    5.90462609285261
C        -2.38841519455239    1.85243247005573    5.37643426700795
C        -1.08193527935937    1.92810930896832    4.76636798744536
C        -0.46278900673064    0.88105066106361    4.10398738021923
C         0.75838699599971    0.93828405424951    3.45460647245030
C         1.34377947001630   -0.15700376451439    2.71644402500963
C         2.52563902694999    0.30139561738349    2.21672015092715
C         2.65265206125656    1.67249167745904    2.65476979314819
C         3.71969079551744    2.49925453552019    2.34720215081202
C         3.84614241533547    3.82939449053586    2.70484348965589
C         4.94720576773595    4.67948601596534    2.30955517778780
C         4.68069692404121    5.91533722040873    2.81245760020715
C         3.42843892288422    5.80624037863005    3.52738103134333
C         2.80364424507529    6.85805348412155    4.17320245576837
C         1.59174514077659    6.79923953836852    4.84019645207346
C         0.95790503543703    7.92190293515949    5.49109222384787
C        -0.21118257621449    7.45757653447657    6.01487225026159
C        -0.29139853870867    6.05905701465713    5.66480268521076
C        -1.35443638063505    5.23037571813789    5.98024869291766
C        -3.87159930293450    3.55989088413067    6.60358002020949
C        -4.78255644799267    4.34571513961752    5.65660252341145
C        -3.27256943590558    0.65014385351075    5.35633213017060
C        -4.00332602999403    0.51690399094594    4.01750722547315
C         0.70874291866166   -1.49403438991064    2.52525919363365
C        -0.35177954800277   -1.45463148552126    1.42180518421476
C         3.50461893702255   -0.40838883999464    1.34259056324864
C         3.30999265640815   -0.03039510291571   -0.12813911761757
C         6.09631412574710    4.25619307494432    1.45617590870880
C         5.71511807124881    4.28730004252141   -0.02613238850988
C         5.50737239168940    7.15401827747938    2.71086918981481
C         6.34550913810140    7.36095172559429    3.97509997018400
C         1.53492638739535    9.29489728789772    5.59110480091272
C         2.57549058861057    9.37050985088847    6.71115613610654
C        -1.25968920194959    8.22109152879741    6.75442396757901
C        -2.38549599745294    8.66203425805087    5.81513137178482
C         2.15106883228430    3.39746387489363    6.06110628878131
C         2.68326665706293    1.97837074743403    6.23078812633280
C         3.31269927239269    1.79932734759599    7.61341712581209
C        -1.37884547910502    5.63346254180976    2.35507059212933
C        -1.01628916945429    3.13015005045964    1.36351325562833
H        -0.98480065070699   -0.06295578124427    4.08474695397862
H         4.51709893967345    2.07187160578095    1.75934444498602
H         3.29953179486644    7.81587735107995    4.14371259189556
H        -2.15833722101059    5.66259991338673    6.55565981002129
H        -3.59490861926213    4.19403449531158    7.44896720583708
H        -4.42237178296873    2.70366454670687    6.99766539293176
H        -5.67204754522679    4.68871785167966    6.18051943878984
H        -5.09389065955686    3.71866751591891    4.82385661755750
H        -4.26173495158097    5.21222042807701    5.25451498265034
H        -2.67890234045927   -0.24908984260997    5.53589109768662
H        -4.00995300006128    0.72589037312597    6.15781316576302
H        -4.63856916531032   -0.36617982965266    4.01621189082527
H        -3.29171302754276    0.43286117928155    3.19875178166417
H        -4.62728825856408    1.38993510617895    3.83839028760691
H         0.24768005663364   -1.82214367585788    3.45979466508588
H         1.47332435741090   -2.22604459296772    2.25815314203313
H        -0.81027388997420   -2.43343294728268    1.29812284910031
H         0.09846597725663   -1.16273257210466    0.47570608007444
H        -1.13019159321674   -0.73419153554722    1.66387194778670
H         3.38032530790647   -1.48747650037642    1.45402233749288
H         4.52279302952007   -0.15838577928084    1.64950828530413
H         4.05115845937475   -0.52678904521556   -0.75097161215852
H         3.40499211461091    1.04473846057470   -0.26182169630963
H         2.32012260804016   -0.32789024960100   -0.46710785646798
H         6.94262838374378    4.92474912753616    1.62506454916526
H         6.41246535373616    3.24741259779425    1.73167967567156
H         6.55012728195697    3.96146729181055   -0.64323084877182
H         5.43620556179862    5.29628607830545   -0.32072359892657
H         4.86470361891862    3.63654715019986   -0.21442268985028
H         4.86009065690938    8.02017061734496    2.55616193399444
H         6.17061159061936    7.08016957466564    1.84728492575068
H         6.93608067408343    8.27147142900785    3.89704644785688
H         7.02033326789006    6.52027252411861    4.11981424947839
H         5.70438527009740    7.43399072453765    4.85039802390827
H         0.73786988711997   10.01361836523697    5.79072241116050
H         2.00021287642420    9.57254087609155    4.64241120121012
H         3.00020077076343   10.37042327581434    6.77088418405297
H         3.37824604169832    8.65903183156622    6.53333514625744
H         2.11607610214927    9.12961284668599    7.66717854081579
H        -0.81140890822633    9.10251340596867    7.21611938625970
H        -1.67355305166586    7.60354294270472    7.55454657938129
H        -3.14625096629784    9.21408892502459    6.36290987750328
H        -2.85243467455663    7.79866693976699    5.34617131217706
H        -1.99092922056402    9.30267342483662    5.02929886674150
H         1.42555511107923    3.59065839649723    6.85998064400376
H         2.98319567591946    4.09779157293942    6.20106273858368
H         1.87154789458621    1.25865427716613    6.11690709830905
H         3.43573731796669    1.76696895370325    5.46984674192678
H         3.69100276097886    0.78647167082561    7.73194199366919
H         2.57749485895490    1.98644530372639    8.39252226288899
H         4.13842558047318    2.49397412815825    7.74793356119831
H        -0.96392098492428    6.55476693443706    2.75001707504844
H        -2.03900983460314    5.18125926146522    3.08583129225049
H        -1.89330617822742    5.82922122138840    1.42169368641402
H        -1.69852746209297    2.79573326924819    2.13614575868010
H        -0.35113659797218    2.32133832442176    1.07976038778224
H        -1.54912835774896    3.49419417642870    0.49301182837732

