91
CSD_code = JAPBIM | q = 0 | S = 0 | Stoichiometry = C36H39CoN6O6S3 | MND = 6
Co        0.14021848316779    4.34526278796191    4.43658462014828
S        -1.89198220476504    5.29760591180511    4.92549607749404
S         1.28758864988685    5.81078632938070    5.76253398567873
S        -0.13325958870116    2.94520606218177    6.24229662467133
O         0.50650012194036    5.56231392167164    3.02378908213801
O        -5.71142750616238    5.47209265577976    1.83870932806706
O         1.71783236156358    3.41902368509392    3.99298502647380
O         4.22906898753617    9.59532020809083    4.04477784685183
O        -0.71564172590783    3.17420139566055    3.16726783240666
O        -4.87285683437359    2.71803726360283    7.25477356921398
N        -1.39080924982893    6.87138341354756    2.77827037907806
N        -3.55808828588127    6.52674297077391    3.30262863591459
N         3.44293790346299    4.92535673248997    4.36987941525560
N         3.47463117587978    7.07850846365399    5.05483432588723
N        -1.46546166380248    1.44945872966115    4.47111595404451
N        -2.39639724240939    1.60286412970692    6.53894465001312
C        -2.26626002530838    6.25773830936682    3.55348752136248
C        -0.11218195443907    6.58554167916971    2.63556812396419
C        -4.66627443647771    5.90330578627360    3.98496994061446
C        -5.30112987115949    4.86983255560176    3.04473528802130
C        -4.62804387193158    6.08350603747462    1.17581637266792
C        -3.96803582662439    7.14896140081039    2.06086368946086
C         0.65540425911121    7.57675316699595    1.83996786125350
C         0.19511243653714    8.88172372597853    1.68968127530160
C         0.93821284567566    9.79565326942424    0.96593180419551
C         2.13318263989436    9.41238044673041    0.37700856086197
C         2.59165022939768    8.11225449037754    0.52029361886130
C         1.86158107445390    7.19763405692755    1.25768149784877
C         2.80949649354672    5.91851612636825    4.96429927948887
C         2.92659427817770    3.75176023771881    4.04235073488084
C         2.95189334856076    8.28675147231698    5.64494667747570
C         2.94300016406883    9.39442174846292    4.58319657045484
C         4.71535083324004    8.41425277154621    3.44873523201107
C         4.78143954176475    7.26625743892220    4.46191094185654
C         3.91922460005688    2.73099748126549    3.62227263791646
C         5.28244599458250    2.92809064690520    3.82312316027728
C         6.18493499281046    1.95892277166997    3.42802347565395
C         5.73722853199669    0.79104494840155    2.83006794185353
C         4.38075289286829    0.59015063999564    2.63016567323337
C         3.47303396246247    1.55359198604859    3.02641248320723
C        -1.44264928791168    1.98069131922023    5.67362815095120
C        -0.93867581409179    1.95088947347069    3.37256454866009
C        -2.56611971568128    2.21121812797357    7.83892119945624
C        -3.66817115481849    3.27468499892012    7.73903673395811
C        -4.69391868034380    2.12105758831227    5.99233839263564
C        -3.62869779558728    1.01819215370214    6.05150455149705
C        -0.70616635533058    0.99270026379965    2.26972777104033
C        -1.13819424437266   -0.32795510739571    2.35316020717343
C        -0.85425499276775   -1.21060906036345    1.32848747857923
C        -0.13618662994056   -0.78602549081795    0.22088197665724
C         0.29960224455490    0.52671935154458    0.13665586647011
C         0.01507637772377    1.41562488019199    1.15585151068604
H        -4.32122968955486    5.43465021831705    4.90498737674730
H        -5.40170623112620    6.67770804326954    4.22522186630542
H        -6.19630395494207    4.43544995339602    3.49205804771837
H        -4.56917499615929    4.07298372797628    2.83857817615285
H        -3.87596137082727    5.32736074044860    0.90328621513475
H        -5.03821950873111    6.53094715647888    0.26933861729554
H        -4.69331212570232    7.93572829084339    2.29154315330370
H        -3.09240537080087    7.57339194221900    1.57225952570282
H        -0.73751673821809    9.16332130287076    2.15335292564831
H         0.58562976967584   10.81071403648735    0.85835586450762
H         2.70888433979905   10.12735130914824   -0.19164893129232
H         3.52006491110214    7.81210343488510    0.05577460371443
H         2.21041215306318    6.18375768000445    1.39018933131217
H         1.94485060051555    8.10851938389923    6.01977487919913
H         3.60126729694045    8.58354737142805    6.47635970417292
H         2.64408018378190   10.34548722323366    5.02597364748828
H         2.23657656314754    9.12573468512902    3.78302186465351
H         4.06400693694478    8.12320545945683    2.61214994485661
H         5.71178404798797    8.65087301455075    3.07215232210529
H         5.49053886855977    7.52377607510737    5.25739650415555
H         5.08109553262935    6.33852879971186    3.97773986597317
H         5.61581270184869    3.83824465754270    4.29623175145305
H         7.24238626892140    2.11161157320623    3.58774020367893
H         6.44637630954212    0.03647485515093    2.52220422333076
H         4.02946849622852   -0.31999318335716    2.16634283798557
H         2.41314627189220    1.40886772107659    2.87832063683739
H        -2.86211760512023    1.42996714864034    8.54513535796442
H        -1.62893411705241    2.66342267170090    8.15895476688849
H        -3.32317100608641    4.07783740887815    7.07086871043947
H        -3.89801600257559    3.69058588148725    8.72037173772813
H        -5.66478694770538    1.71450887420986    5.70442588050359
H        -4.37901333069854    2.87747791913009    5.25679392888733
H        -3.45556977434010    0.59124904660009    5.06471020624868
H        -3.94090558438218    0.23788650066256    6.75177596977276
H        -1.68807338875075   -0.64560597227279    3.22522020828251
H        -1.19020697134218   -2.23528961661939    1.39228236546790
H         0.08625606521045   -1.48068691020478   -0.57604691304065
H         0.86450200241026    0.85524870363505   -0.72351531475538
H         0.35267492773067    2.44075651725535    1.11556183380648

