77
CSD_code = JAPCOT | q = 0 | S = 0 | Stoichiometry = C43H28N4NiO | MND = 4
Ni        6.90287903773868    0.89672361486080    6.55961038700502
O         7.67146240493744    1.47259889331473   11.00050442551770
N         7.05239985827997    0.52853235213137    8.42152365836153
N         5.01243995609155    0.55421481515801    6.65157780524709
N         6.74837545421474    1.31133784240934    4.69124234088719
N         8.79640144847657    1.13730890304666    6.45459414865502
C         6.53175372344085    1.46142133936353   10.58746320221433
H         5.73474583521917    2.00303059713067   11.12577882731771
C         6.07603801615593    0.87179099317166    9.33010656239844
C         4.71701702233880    0.77219145219923    9.06820695927700
C         4.26996384162188    0.41881041605627    7.78162302155589
C         2.97980846332422   -0.10352115762993    7.46610411762823
H         2.22119042296659   -0.34137650604662    8.18626999691091
C         2.94547857186736   -0.27638716068675    6.11920811490911
H         2.14697107729709   -0.67334884421200    5.52394112130659
C         4.19611819084467    0.19695140603599    5.61153532842647
C         4.48915154901817    0.43145400731624    4.26885530892632
C         5.67513089680729    1.05765964370094    3.88194950892912
C         5.89752748219327    1.62135383697407    2.58591530739842
H         5.19799240395778    1.58584689025853    1.77363257058652
C         7.10525095360834    2.23626295794539    2.62645995266434
H         7.59138226541152    2.79085000531775    1.84830123634587
C         7.64942410271018    1.99493618320032    3.92773585656237
C         8.95455955569884    2.32063336725978    4.31718841356708
C         9.48654904651622    1.85173154630160    5.51052655675923
C        10.88010919646367    1.87914289677361    5.85153498887460
H        11.63906353989311    2.38235896819613    5.28472352060271
C        11.02543092202322    1.12748749068555    6.96892430635626
H        11.92138663737212    0.91939789052119    7.52029777979086
C         9.71583732008445    0.67952801398485    7.34092336892482
C         9.40716185414644   -0.05479309941200    8.49545265549194
C         8.11306134757393   -0.05861622032388    8.98353026930314
H         7.94986978130513   -0.58388481790633    9.91974158743568
C         3.71520583731638    0.96159843145890   10.12591537714374
C         3.83644873272153    0.30792392162942   11.35147890572483
H         4.67807552705432   -0.34814076714642   11.52222451994892
C         2.87819846904978    0.47644437980267   12.33352897298533
H         2.98181959201049   -0.03785312527191   13.27752464683885
C         1.78729233744530    1.29970240755640   12.10809498606386
H         1.04074708538503    1.43185025484000   12.87692795253507
C         1.65597749669647    1.95081597470528   10.89233419121559
H         0.80755565864147    2.59475422084784   10.71309245964694
C         2.60907429045944    1.78062385666480    9.90589399486871
H         2.51366128307774    2.29600348140636    8.96142674286265
C         3.49809103458470    0.09991402235333    3.23075936025502
C         2.21868641596302    0.64783802213463    3.25368053926154
H         1.95332168681229    1.34304259556188    4.03677128624881
C         1.30327310844724    0.32763901281963    2.26774802722254
H         0.31472262649316    0.76255147600174    2.29236427861188
C         1.65126321236484   -0.54485077006328    1.25007527122769
H         0.93387391286215   -0.79626252191019    0.48305940071040
C         2.92433894307893   -1.08951009137026    1.21662436658740
H         3.20154491778755   -1.76809525413724    0.42322996517867
C         3.84445791260122   -0.76584060441151    2.19641273642313
H         4.83675630790841   -1.19234748934952    2.17535443873514
C         9.82554109704589    3.08695590991696    3.40598330009194
C        10.17899471602911    2.58568554958585    2.15694474326003
H         9.81832530301652    1.61347955673403    1.85368787995892
C        11.00449210300171    3.31426173413029    1.31989816530633
H        11.27642681535801    2.91427797599171    0.35390684599437
C        11.48428473375396    4.55088498994605    1.71797421273490
H        12.12632664589957    5.11957120408926    1.06175831700522
C        11.14225064984396    5.05320432731948    2.96246168322735
H        11.51700102600179    6.01561918608658    3.27892765492798
C        10.32224906548643    4.32454316557148    3.80443834555479
H        10.05201773350973    4.71431549885565    4.77507227756158
C        10.46304069884388   -0.74654959684445    9.24362750696893
C        11.40352725545222   -1.53057543830256    8.57742345557946
H        11.34285753073095   -1.63338625615640    7.50341364252711
C        12.39181895114643   -2.18987165088113    9.28376473136776
H        13.11291926282311   -2.79861278957323    8.75751950072092
C        12.45766130821049   -2.07356536352356   10.66260018992896
H        13.23184088108785   -2.58795502893118   11.21283263513264
C        11.52868334828851   -1.29398273608546   11.33225717316015
H        11.58180461635856   -1.19551599629932   12.40674898692423
C        10.53536444678395   -0.63584930366336   10.63129740002464
H         9.82965324295811   -0.00496488918496   11.15055572560093

