29
CSD_code = JAPJIT | q = 1 | S = 0 | Stoichiometry = C7H14ClN4NiO2(1+) | MND = 5
Ni        0.28966375984349    2.49313803365236    2.27983469141065
O         0.61552104075495    1.11523524421770    0.91677157817443
O        -1.51377317694232    2.83638321494364    1.57782763545376
N        -0.23524625542685    3.53734864413507    3.68650689043647
N         1.82493272734442    1.86413997977597    3.05002650821804
N         2.22168093055217   -0.22786939730021    0.11136426187017
N        -3.27567038879295    4.20312881448563    1.82366774802989
C         1.76411160210110    0.66278622442738    0.98071925476058
C         2.65932818932309    1.16708659743076    2.08610772714319
C         2.60693681983546    2.64851600424492    3.96856195094888
C         1.74336069864642    3.21446893864860    5.09174197363326
C         0.70616586939479    4.19531643432890    4.55328319624990
C        -1.33771821987657    4.41024518947813    3.32042812361653
C        -2.07375890675509    3.76454554241492    2.17202442169255
Cl        1.25133101070279    4.04751742639160    1.30603797766928
H         3.15727561719738   -0.59519713358868    0.15483934250176
H         1.61712440092049   -0.53889071008734   -0.63583437248554
H        -3.74596797986686    3.77344084964869    1.03965319223302
H        -3.73363566495411    4.96156698955396    2.30042696553037
H         3.43242217995711    1.82457302562284    1.65290777596041
H         3.16552225849158    0.33498942517605    2.59225550717807
H         3.35531730875384    1.97722594653010    4.40875614458487
H         3.15087948213439    3.45596541722914    3.45558737258236
H         1.22657627446151    2.39235637570493    5.58834086099193
H         2.37992132354183    3.72330506776053    5.81386625139615
H         1.19907682264538    5.04262359890412    4.05306375995744
H         0.13656449104698    4.60037198481987    5.39940623034950
H        -1.99548295338104    4.53433416879212    4.19033257915918
H        -0.99045926165322    5.41034810265849    3.00899445075296

