79
CSD_code = JAPPEW | q = 0 | S = 0 | Stoichiometry = C39H32Cl3O2P2Re | MND = 6
Re        9.47972561351859    8.27164105605007   24.70981707605401
Cl        9.54367162776581    8.82190154983558   22.57866936161286
Cl       11.49157572107235    9.38180061443269   25.09743907356196
Cl       10.80180475712450    6.40512500078383   24.29927896541146
P         8.28505329813801   10.49694033608671   25.07922644622254
P         7.43831313603277    6.82444975700108   24.17331720389787
O         9.15317906124717    7.92969937974422   26.30594750956498
O         6.53480908868806    9.22440282411337   23.27254306873213
C         7.46301407213057   11.32254497994650   23.68701153346974
C         6.65255775768139   10.52483423390697   22.87979866795765
C         6.02077060936505   11.02337351054377   21.74333662256850
C         6.21147436960697   12.36490788724190   21.44177594319187
C         6.98800150908038   13.17763688003640   22.25079446048119
C         7.61343882119343   12.66647761514900   23.37245465548042
C         5.10494240464692   10.09946710885055   20.96054676998225
C         4.94967672118405   10.53217941176457   19.50277341000219
C         3.72388273312876   10.12391802802966   21.64926637969508
C         6.27297256916381    8.33105495923950   22.27499909914774
C         5.64454249538702    8.68670868030553   21.08760386568702
C         5.46715478228090    7.68754532225069   20.13906704661207
C         5.87249172532380    6.38608270271368   20.38504395065220
C         6.46466362034419    6.04095598148284   21.58708874120984
C         6.68202449507580    7.02409163920970   22.54040737144444
C         9.43745750709785   11.79043627292400   25.62237116108914
C        10.42637409730247   12.15028078746667   24.70487124654719
C        11.36889888520367   13.10215840670269   25.03832113645680
C        11.33690199782022   13.69850745258910   26.28950317208633
C        10.35487623128556   13.34738173798420   27.19928422643643
C         9.40508806112381   12.39364214970718   26.87230084800001
C         7.02354328534470   10.41920683921002   26.37823042150513
C         5.70368353460483   10.80465343636526   26.18171178921133
C         4.80505673497839   10.73857371603737   27.23225338644705
C         5.21951658671613   10.30333296567857   28.47924809074060
C         6.53374651906240    9.90746630318384   28.67537911599736
C         7.43163238581980    9.95158462691919   27.62640457364280
C         6.03321419058155    7.03707541765888   25.30702407917603
C         6.30768698116838    7.04430845970135   26.67207717132022
C         5.27726349458830    7.14339577070117   27.58769557080524
C         3.96867974106885    7.26118532130254   27.14794665056319
C         3.69341785724101    7.26847581654116   25.79120325938775
C         4.71839124038093    7.14563033049908   24.86957527635848
C         7.79857521054830    5.04827481720394   24.24555554359718
C         7.29396482772854    4.21378807095490   25.23543575218536
C         7.64726709928432    2.87554347335138   25.25365260661924
C         8.50730504558806    2.36625185294302   24.29560501180771
C         9.01640787778618    3.19644645777753   23.30964494632196
C         8.66862522178610    4.53322450177351   23.28350595290853
H         5.74499059992062   12.79502034847329   20.57079503903671
H         7.10763400803264   14.22058728694646   22.00032491012380
H         8.22291701331751   13.30301255310928   23.99486345824200
H         4.52740946879560   11.53125814158274   19.44401168828511
H         5.91161013847870   10.52277416998932   18.99580353475786
H         4.26735365788433    9.86718245330065   18.98094202413673
H         3.30808018059000   11.12875614050298   21.61732230210291
H         3.04191461181204    9.44416529808488   21.14266484212110
H         3.80707943657190    9.81712988790585   22.69052992562880
H         4.99652100978591    7.91406925874768   19.19640219640323
H         5.71274517932213    5.62911529812729   19.63242525650658
H         6.75637374182288    5.02049288458961   21.78099896465045
H        10.45067126167844   11.67236280003307   23.73462468255840
H        12.13700097334213   13.36992882673014   24.32863963310489
H        12.08052489151741   14.43509324747921   26.55568883417137
H        10.32821150778481   13.81378907485771   28.17360651750202
H         8.64293167592572   12.12477668088542   27.58905201062811
H         5.38091364690274   11.16298009209450   25.21480250665137
H         3.77825657007891   11.03653175784270   27.07792555426487
H         4.51641323642371   10.26740994057445   29.29821554642338
H         6.85617575596465    9.56158312920891   29.64632608583400
H         8.45274349701055    9.61364151457103   27.74976651509850
H         7.33857969900930    6.98079139253782   26.99560090143600
H         5.49331717468292    7.12981114679856   28.64517502052184
H         3.16323968434741    7.34562375896756   27.86228894102277
H         2.67323620690934    7.35889263730760   25.44695888289050
H         4.49105524780121    7.12630718537481   23.81336149891126
H         6.62840745839574    4.60662534418586   25.99023086733304
H         7.25367512808173    2.23021165659315   26.02533595283408
H         8.78672613201695    1.32332459101424   24.32080327110933
H         9.69596236979873    2.80452011626162   22.56785863395931
H         9.08191323271315    5.18886694143715   22.53024578989755

