15
CSD_code = JAPROH | q = 0 | S = 0 | Stoichiometry = C10HgN2S2 | MND = 2
Hg        5.53899961724695    0.00000227360120   -0.00000096442585
S         3.54005097242774   -1.28194001454385    0.72116748395108
N         5.65434034558654   -1.22257429955824    2.34052692926999
C         4.36773651917402   -1.70525857649676    2.17749631377597
C         3.83776520672010   -2.48201795228485    3.17339204501425
C         4.57128842153875   -2.73530639069792    4.23928480258356
C         5.76526624246416   -2.24003514412941    4.30380348681636
C         6.35113996797829   -1.48190981309544    3.38703355386431
S         7.53795140904628    1.28194381034491   -0.72116668970184
C         6.71026572283792    1.70525824990654   -2.17749688838593
N         5.42366144105458    1.22257330555922   -2.34052504904098
C         7.24023480367004    2.48202023071970   -3.17339319059327
C         4.72685997436883    1.48190558044788   -3.38703218043007
C         6.50670831767744    2.73530768026338   -4.23928552432330
C         5.31273103820847    2.24003105996359   -4.30380412837424

