62
CSD_code = JAPVUS | q = 0 | S = 0 | Stoichiometry = C16H32B9Cl2NOZr | MND = 9
Zr       -1.00567339441569    8.24423855801879    3.14864401094346
Cl       -2.72322024959499    7.07034009750127    4.37154050376835
Cl       -0.45690114126318    6.60915091360065    1.44825271514355
O         0.24859674482537    6.54264714083757    4.27709778457776
N        -2.78927005183551    8.39723581011932    1.63790928493534
H        -2.27104508961308    8.56508798363059    0.76320092605382
C        -1.45089917432741   10.51340297691408    4.23497969442650
C        -1.43077866763896   10.71252328516858    2.69669777340910
C        -2.78056298003218   10.40634224046393    4.98063457378931
H        -3.53362059724376   11.09334849095910    4.58862765569162
H        -2.62731905106451   10.67437994339248    6.02703491606449
H        -3.19652391497566    9.39387678388573    4.97262580861838
C        -2.74171218832020   10.84104414892136    1.91682569619430
H        -3.35246052741956   11.66980623068744    2.29093640097730
H        -2.49199218028443   11.08484630963386    0.87692421880431
C        -3.61493441943923    9.57828516814014    1.91289178319239
H        -4.10417746598258    9.42326012408245    2.88347946619396
H        -4.40731639820493    9.69299221773145    1.15432268935721
C        -3.62390750342094    7.19826077887256    1.38950420729939
H        -2.96837386394050    6.31899311980931    1.42778804782071
H        -4.37106606732928    7.11873024988217    2.18481312344986
C        -4.28116070401222    7.27430520148897    0.03524294677395
C        -5.64308241704071    7.49913462781815   -0.10836912872585
H        -6.26942165554674    7.57646289569024    0.76930217076027
C        -6.20380433128791    7.61382644152736   -1.36973032419840
H        -7.26483771812778    7.78681656444966   -1.47241266608348
C        -5.40596717140208    7.50939731831544   -2.49573410920638
H        -5.84379503931859    7.60039906936458   -3.47843584950362
C        -4.04556327158815    7.28217358139957   -2.36016237046692
H        -3.42241980112600    7.19267999125713   -3.23730116579978
C        -3.48552992933846    7.16608540290470   -1.10143708193762
H        -2.42687450644036    6.97210915254316   -0.99078933185341
C         1.26424769345165    6.53217660238856    5.28302996479058
H         1.49907399547475    7.56141208282301    5.55791012001177
H         2.16142101571656    6.04691042503470    4.87337817624071
C         0.67885765373162    5.69789956833506    6.43265652830813
H         1.45197674652913    5.12569928903428    6.94013934326455
H         0.19219601100477    6.34400375020928    7.16156794225001
C        -0.35192905208205    4.79695258118329    5.72769544365462
H        -0.16353191369633    3.73790415055619    5.88542427869275
H        -1.36114862178114    5.02750267849625    6.06633971297319
C        -0.20131933399187    5.18330821603559    4.25188103724546
H        -1.13455047962471    5.12829470430747    3.68702149105901
H         0.55986948468053    4.56444982755140    3.75644983642736
B         0.67768495941281   12.26119276583927    3.72446416758964
H         1.20119361560522   13.30432243255377    3.87314941544357
B        -0.17777000113426   11.43467947668524    5.03365417971556
H        -0.39411720796799   11.83732235781925    6.11976017118236
B        -1.06179261057918   12.11903970567061    3.69434714093732
H        -1.90995921542405   12.93090621369284    3.79042649260481
B        -0.16105708310239   11.82373525798452    2.22014984422274
H        -0.36732239202469   12.51442763249434    1.28710982731587
B         1.33265398850346   10.99884498350951    2.64618344166275
H         2.32109892665956   11.15753819351830    2.02377376154781
B         1.31068711940350   10.73013308775771    4.41819862466982
H         2.28412190717688   10.69447508593080    5.08592267149992
B        -0.06773402577998   10.05866472940766    2.00195260112222
H        -0.13950587390685    9.69770513984791    0.85698343033600
B         0.92954507241115    9.41036066109223    3.30709733587686
H         1.73873597898388    8.52874883211924    3.17092619013308
B        -0.12079819247373    9.68097845753647    4.74959448320108
H        -0.25841343844832    9.01562829161412    5.74420797554843

