77
CSD_code = JAQKER | q = 0 | S = 0 | Stoichiometry = C25H46ClNP2PdSi | MND = 4
Pd        3.60632084989820    3.22603614176470    2.72136956846359
Cl        4.54604520941170    3.22364358389835    4.87984039897214
P         3.73634044536868    0.94604204257867    2.69098569050837
Si        0.77443210543125    3.22770671203776    1.40467859064509
N         3.75195571724671    3.23207028884684   -2.45162705500023
C         2.61945858555760    3.22102412610619    0.98870337732652
C         3.27452523787736    3.21879592466949   -0.18668736967472
C         4.73082307017925    3.24460946352269   -0.36341454939860
C         5.79985939909633    3.25832852266958    0.51304867577215
C         7.08483098282389    3.28810853543286   -0.01144557658293
C         7.29775363038675    3.30529564490021   -1.38335807921968
C         6.23516031506315    3.29045321437493   -2.27539597582593
C         4.95442598981282    3.25861198775569   -1.75703209701189
C         2.79270283968979    3.20607108404222   -1.58491919558684
C         1.38094837016740    3.14568820055052   -2.03332358837797
C         0.53075094658781    3.20835306814780    3.31877327674213
C        -0.16101325047261    1.68396031428612    0.74316790399349
C         3.81757722943924    0.15751035277477    1.01753263159730
C         4.13741865088453   -1.33046213695670    0.96247534290950
C         5.17813506571222    0.23451203549411    3.58620810523459
C         6.49828011823996    0.79092851882178    3.06766470080014
C         2.33008856648386    0.05055122792010    3.47976164675765
C         2.18998693996338    0.39903128933514    4.95877653981358
H         5.64562901243239    3.24373633809026    1.59968116456198
H         7.93272826028310    3.29762203490599    0.65888657465478
H         8.30967293477227    3.32958808134534   -1.76162371438023
H         6.39535917123954    3.30234232927908   -3.34211636907642
H         0.79397460008579    3.93725138624562   -1.57731746828824
H         0.94172394611478    2.19039036461417   -1.75432640002720
H        -0.05617273502041    4.05763483706227    3.65754023499093
H         0.00951715003765    2.31347735094933    3.64725330052005
H        -0.71435985021600    1.91982803115539   -0.15840391156043
H         0.50595416004295    0.85823599890539    0.51363397046771
H        -0.88011503379749    1.32981022592328    1.47529896421592
H         2.84668364916088    0.34997515245384    0.55095051892908
H         4.55978023146810    0.71424916793754    0.43734072152912
H         3.43280717390762   -1.91559118993766    1.54888616211320
H         4.07887403723660   -1.67280437666402   -0.06925417267832
H         5.14304656393262   -1.53119763973632    1.32251028041534
H         5.06321108632607    0.51565045317833    4.63594298980106
H         5.13894332457406   -0.85598884792477    3.50816777242600
H         7.33571448488727    0.31776105159400    3.57728047798010
H         6.60846684332537    0.63238798098743    1.99547503662390
H         6.54022099249794    1.86094588224534    3.27327593126273
H         1.42895084735679    0.34419304713318    2.93300983562638
H         2.47065934604265   -1.02681656375590    3.35483748683631
H         2.93286652203603   -0.12754696491787    5.55309693437037
H         2.33581752208802    1.46828717900239    5.11685190727553
H         1.20345329134717    0.12470006267896    5.32771337110247
P         3.72664390343819    5.50659015400686    2.70642965540943
C         3.80010482843697    6.30857065421771    1.03908471994562
C         4.11496672337957    7.79794325497821    0.99484944158412
H         3.41237100044582    8.37580183201112    1.59080904096932
H         4.04855420004322    8.14903106877418   -0.03346274128946
H         5.12230813825165    7.99870120558689    1.35008033337108
H         2.82749394826418    6.11721661313567    0.57595545661639
H         4.54143836117662    5.75915208560532    0.45107217989443
C         5.16146401864318    6.22468380536513    3.60784947135122
C         6.48797419851775    5.68675528744888    3.08612287479351
H         7.31968548719978    6.16560996674510    3.59981965617650
H         6.59691933122730    5.85448132894439    2.01523655434074
H         6.54194817559728    4.61586872060831    3.28376218254356
H         5.04881207476458    5.93422877517561    4.65527882994271
H         5.11082558469092    7.31529466157270    3.53817782910083
C         2.31220853713365    6.38478685029475    3.49971325586666
C         2.17900417784337    6.03718255884448    4.97968218476088
H         2.91497432336354    6.57558103391870    5.57195439866966
H         2.34006226252467    4.97062094933868    5.14052692589508
H         1.18907360474847    6.29828921974939    5.34906407852768
H         1.41425039762308    6.07895993367779    2.95467758020545
H         2.43825975423186    7.46371070125458    3.37314166436285
H         1.49229326102281    3.24145250643733    3.85122005825542
C        -0.11723347599572    4.80758939731221    0.76052021342124
H        -0.86015704085009    4.55026056117020    0.01339983491071
H         0.56752614139690    5.52102124008153    0.31166453135916
H        -0.63933033205087    5.31898205419404    1.56332174119700
H         1.35304386793369    3.24544206382947   -3.11542651471083

