64
CSD_code = JAQPUP | q = 0 | S = 0 | Stoichiometry = C30H31AuBrN | MND = 2
Au        1.93254277454723    2.75233851031623   -1.69563408940154
Br        0.39286297412014    2.59289008083350   -3.47722754069230
C         3.25192006114156    2.81113501186991   -0.16286819678991
C         7.42214185778969    2.73908205280646    2.82143553734188
N         3.71257481257228    1.67969633320770    0.40154093883584
C         6.05365175203446    2.74962904055474    3.09305189188554
C         2.26305269887773   -1.93955497372723   -1.16150197175272
C         3.27703410891764    5.28482537471542   -0.20395361739068
C         4.58939281003310    1.63668382513170    1.42068169442963
H         4.87660955640309    0.65718823389644    1.77661615974175
C         5.58162693197924    2.73520825562482    4.40584531745749
C         1.62301314524812   -1.32422493593201   -0.09369430497574
H         0.73327313954770   -1.77358216983763    0.32189138717113
C         4.64933205848176    4.00742194749430    1.43081333063005
H         5.01929118654119    4.93744238686737    1.84041653386470
C         3.22938659983904    0.43682263914772   -0.12095219931373
C         3.75013654111447    4.01139004028705    0.38519118053232
C         2.09063633233304   -0.13579888081793    0.44275161142240
C         3.40318027274097   -1.34990307480252   -1.68941061467452
H         3.90686675935481   -1.81796775376521   -2.52210365401344
C         1.38371220946591    0.54475591575004    1.57478428612914
H         0.52901353481752   -0.04172805961830    1.89886762333413
H         1.02868697766637    1.52658704878747    1.25909174134368
H         2.05029849363692    0.68861858858299    2.42570412512824
C         4.10687935120391    2.74508895201742    4.67880358667809
H         3.91439838255007    2.82249966781341    5.74547822444871
H         3.64381443194647    1.82866606239285    4.31207677306261
H         3.62559695933830    3.58364653244237    4.17660830015386
C         7.85707799168204    2.69455574258143    5.18780941539270
H         8.56132359701756    2.67336890320937    6.00580319659196
C         6.49868469489841    2.70701446008366    5.44656860013815
H         6.14389300835044    2.69593378410549    6.46663432868561
C         3.90438534246886   -0.16126658658807   -1.18274744023636
C         5.08809349750855    2.79078228420068    1.97108184165779
C         8.31494270786374    2.71080704201494    3.88298819035818
H         9.37646697563091    2.70250052011461    3.68391485665657
C         2.37972284638385    7.64515095901899   -1.33045368598746
H         2.02656073764156    8.56393087906406   -1.77383738180726
C         2.10364807703499    5.87101144533749    0.27096101616565
C         4.00284869036854    5.87189090400149   -1.24092777968574
C         7.91093623264737    2.75207909622163    1.40359227454671
H         8.99580306948834    2.80586597181938    1.37189422581292
H         7.50473461705687    3.60570229958690    0.86191192640955
H         7.59585624174627    1.84822786479827    0.88162473259237
C         1.71016956547114   -3.19722136723668   -1.75299477366501
H         1.24537388184927   -3.81596287591437   -0.98895583315791
H         2.48788715299063   -3.76967793715339   -2.25210196213441
H         0.94861468506097   -2.94534009456429   -2.49120477798515
C         1.66643097841560    7.05526609599332   -0.30343130570070
H         0.75560663486417    7.51318513014781    0.05338883982201
C         5.24927545666675    5.21384783367499   -1.75400477033920
H         5.98128126924483    5.08943589642494   -0.95575071124182
H         5.69774843426027    5.80594819237441   -2.54718035152100
H         5.01666684173988    4.22497108933278   -2.15042590667282
C         3.54075194192038    7.05562514004831   -1.79590627126325
H         4.09222462069172    7.51407417257575   -2.60363021445446
C         5.11346721834174    0.49352887468715   -1.77698829430300
H         5.85780560642008    0.71985457075137   -1.01324853505145
H         4.82920003114134    1.43200470793559   -2.25554139087687
H         5.56660116848046   -0.14881840613208   -2.52640203554078
C         1.31996992125418    5.21173032722987    1.36659069739343
H         1.95783907928396    4.97421224555258    2.21778332992582
H         0.88578377115262    4.27918398363072    1.00328253290241
H         0.51229669871992    5.85614019903555    1.70319936198643

