118
CSD_code = JAQRIC | q = 0 | S = 0 | Stoichiometry = C61H50CuO2P3S | MND = 4
Cu        4.89323697257152    3.55548229246706    2.80508523381192
S         4.33931603353300    2.78201119619548    0.65408687183498
P         3.44103818867258    5.24956419659951    3.46392990587193
P         4.28224617606800    1.73777290775656    4.19786332887234
P         7.20448077383255    3.90273039112937    2.77234560569745
O         1.58035522726102    3.01772115481712   -0.11836166130335
O         0.71835355904476    4.84019021239060   -1.01454718995241
C         1.71067429268651    4.74187009376405    3.23841324660548
C         1.22774667767150    3.68055733862408    4.00109595816860
C        -0.04435019099198    3.18994509405606    3.77950421378378
C        -0.83173087647332    3.73454556969726    2.77738860789732
C        -0.34817989556644    4.77564786460888    2.00280900870901
C         0.91888919098799    5.28145674211466    2.22992231580787
C         3.59956523334157    5.45495165567108    5.27039070757537
C         4.90032415552146    5.52608237397552    5.75742757960243
C         5.14057872675506    5.75750293270900    7.09772445155892
C         4.07522903424739    5.89989518895858    7.97062731726665
C         2.77637292374552    5.81215956121673    7.49667160123382
C         2.53334501687274    5.59915413361247    6.15190122634094
C         3.34590173213990    7.00067876703382    2.93807232896956
C         3.71174212837043    7.29195962939725    1.62795059004787
C         3.61522836105847    8.58405563790842    1.14593633369213
C         3.16531763860389    9.59736930702341    1.97567301133434
C         2.81378609950872    9.31382758511017    3.28606543390362
C         2.89921304008889    8.02125186444606    3.77042748149843
C         2.96456292803826    0.59793198646401    3.65428445881603
C         2.09467418913465    1.00198985950724    2.65115719450558
C         1.10076124047864    0.14959990325095    2.20408504086564
C         0.97415296374019   -1.11114213464034    2.76015615003833
C         1.84541498132482   -1.52194418658939    3.75924631896940
C         2.84243869799655   -0.67635312540078    4.20506025258625
C         3.96302584840733    1.91109050584085    5.98397113592693
C         2.74946990204161    1.58712038662970    6.58119271978212
C         2.56156895976753    1.81529444870694    7.93264929156900
C         3.57783585100403    2.36156332793325    8.69835332322141
C         4.78463044005170    2.69689436572008    8.10599947102747
C         4.97004640773561    2.48980859901850    6.75339799933089
C         5.66699837330165    0.54716247054860    4.16452340195204
C         6.14719494377733    0.24809499263324    2.89137213925178
C         7.19446301571863   -0.63819220234169    2.73087891447443
C         7.77350885370502   -1.23049746624150    3.84183434925164
C         7.29135825768860   -0.94505590501624    5.10861035913869
C         6.23911053023193   -0.06110486980213    5.27585943791507
C         8.00544637505515    4.03934544192574    4.40585038104566
C         8.18101826201851    2.85883005487102    5.12667437045388
C         8.69426763106998    2.89128401715831    6.40904110267468
C         9.02655869571341    4.10409526322126    6.99238282504549
C         8.85060888413802    5.28048174788370    6.28280132774857
C         8.34009012637905    5.25347601454133    4.99658274456382
C         7.65845112760203    5.49728072611725    2.00708030708666
C         6.84375846859819    6.58858168770421    2.29545949619224
C         7.10034511839833    7.82454884947011    1.73487868948468
C         8.17070201021151    7.97735649773236    0.86870890269527
C         8.98005336000539    6.89319242556943    0.57059808943361
C         8.72994975084435    5.65509555049510    1.13518916188075
C         8.32118190584252    2.74276714308353    1.91353526719855
C         7.83214652727310    2.10486390928189    0.77752792073950
C         8.64005382427134    1.24085142118253    0.06111457706322
C         9.93873976659986    1.00084051450192    0.47728879472615
C        10.42956076123067    1.63318327679531    1.60855954350552
C         9.63025611215231    2.50497930308917    2.32436134450507
C         4.25704921556543    4.25349903061927   -0.29339426815832
C         3.07254972916400    4.78098560538317   -0.84203161589897
C         3.15160085177079    5.94512571506804   -1.60964349232158
C         4.34934711723616    6.58272757992523   -1.85053019072129
C         5.51612617236817    6.06100881980163   -1.30567352267359
C         5.46233575145879    4.91703788753557   -0.54270574500254
C         1.70099573044831    4.22182891736391   -0.66865937113693
H         1.86161183963146    3.24451437384949    4.76409341389408
H        -0.41464178561712    2.36883471323486    4.37701905521896
H        -1.81932566083849    3.33882062729638    2.59351567116391
H        -0.94256444586490    5.18285021416628    1.20008750620908
H         1.29427990458754    6.08636902878876    1.61362818757773
H         5.72797996483694    5.39160178940880    5.07135106983597
H         6.15745257840757    5.81746164596017    7.45804706139067
H         4.25461545925639    6.07634395427818    9.02085099840498
H         1.94533925356464    5.91978505557765    8.17857709717695
H         1.51691278806543    5.54721697032249    5.78758959549029
H         4.07684367754829    6.50053075113671    0.99091126665469
H         3.89361234629276    8.79261110618410    0.12384922891685
H         3.08968188400346   10.60879191076545    1.60426150411048
H         2.46541188386829   10.10471104182268    3.93463668641187
H         2.61930163999501    7.80768481459774    4.79210148829381
H         2.19897077899549    1.98405734406026    2.21724890842106
H         0.43545848911141    0.47825888364491    1.42045413974057
H         0.20055618552642   -1.78123695245531    2.41454896333141
H         1.74832743714176   -2.50895269494198    4.18867191180892
H         3.52644872224980   -0.99805303137683    4.97934878058188
H         1.95667306345566    1.14653752412575    5.99238789001700
H         1.61743305570961    1.55957143941129    8.39133491885183
H         3.42867515293469    2.52850773667552    9.75478124503834
H         5.58048365902233    3.12549496280416    8.69741682816024
H         5.90287615634303    2.76798091258336    6.28003694342683
H         5.68287816976977    0.71684581257389    2.03337567123679
H         7.56395573404418   -0.86274095223625    1.74159008005921
H         8.59792134302498   -1.91757565061184    3.72060939715860
H         7.73591187470244   -1.41488160702908    5.97448851426559
H         5.87231033660517    0.15725079530195    6.26908907969657
H         7.92286721525571    1.91506115824785    4.66553359062278
H         8.82953725467333    1.96899368018031    6.95515393098511
H         9.42429665982998    4.13145182606174    7.99615493778047
H         9.11501833308446    6.22750337791237    6.73125162039409
H         8.21119364626461    6.17773573551902    4.45044648584936
H         5.99410429156507    6.45659873821002    2.95590360801523
H         6.45778920341181    8.66191308027260    1.96464855322003
H         8.36959196391897    8.93936558637155    0.42002745177700
H         9.81093213804783    7.01055152005458   -0.10998702444129
H         9.36095272065013    4.81246454600070    0.89057580404990
H         6.81109784083570    2.27743480710734    0.46359993064518
H         8.25189224414374    0.75242734431308   -0.82062618780693
H        10.57026452749621    0.32258149031013   -0.07779997844155
H        11.44429236932927    1.45121096421947    1.93245169777003
H        10.02584809012430    3.00271646778710    3.19875997769359
H         2.22675654730236    6.32849412063080   -2.01537500669078
H         4.38121621781299    7.47387291100290   -2.45993763627203
H         6.46812321496506    6.54376673840297   -1.47698642319164
H         6.36905758519576    4.50449403189224   -0.12079592413249
H         2.48108657145203    2.67245730735480    0.14796538166525

