125
CSD_code = JAQRID | q = 0 | S = 0 | Stoichiometry = C70H44Cl4N6Ru | MND = 6
Ru        5.34221098847720    4.84081757088069    6.47259630613505
Cl        2.58049743081270    9.10370546637540   14.40932073323023
Cl       -3.00225339972333    6.68509111063151    2.53145014162720
Cl        8.12606555693211    0.67620380850755   -1.49761167694025
Cl       13.71179383622490    3.05526110858512   10.41217339112374
N         6.19348826680416    5.18267028283019    8.32291929175628
N         3.64762851474051    5.80116670139629    7.08006255066625
N         4.48644000486322    4.46934053326201    4.64691708992981
N         7.04380544069003    3.87970903548112    5.87310462155115
N         4.67427703902559    3.31528428661591    7.13031078109912
N         6.09256899128520    6.35273385055381    5.86132629203488
C         7.42978547106980    4.79216156623390    8.71908545863449
C         7.64000949701869    5.19968213311959   10.07990506325346
H         8.53623936812435    5.03644029549252   10.64490045935691
C         6.50736310338072    5.82293926192202   10.48503549804800
H         6.29683560333719    6.24286144916945   11.44908868321613
C         5.60768190015052    5.82061829340602    9.36573247279112
C         4.33194958796990    6.39697397303862    9.36569140496866
C         3.44434774633285    6.38739583780886    8.28819656999940
C         2.15121693043860    7.02341836888895    8.29506522933362
H         1.74606085383457    7.58870408928938    9.11147137336594
C         1.58752161291193    6.78356861182879    7.08975171519581
H         0.63235603081710    7.11352744583353    6.73067982141683
C         2.53051357057103    5.99955428643809    6.33395911014968
C         2.30694834218384    5.53391106216638    5.03702168312518
C         3.22497010560170    4.80547228461966    4.27183276684232
C         2.96582378282760    4.27792223481722    2.96181447565322
H         2.03800880477693    4.36827346560390    2.43148824152440
C         4.09620394024543    3.64485354437244    2.55960073512424
H         4.26585056287913    3.12118851387701    1.63920202367019
C         5.05108529091151    3.77793712737389    3.62349025397111
C         6.35223311443431    3.26452231881386    3.59679541262801
C         7.26274351473470    3.32716338459922    4.65290865695682
C         8.60518739985599    2.80785843393897    4.60042063345024
H         9.04870253912097    2.32841299140009    3.74983889064579
C         9.16662726516722    3.04811156379357    5.80663684645535
H        10.15113444386592    2.78250762011233    6.13824395392098
C         8.18050868377381    3.73429101827513    6.60234483721272
C         8.37848505290627    4.13855009901517    7.92424096521616
C         3.89431089537263    7.06855779499030   10.60985289770517
C         4.56774107155095    8.19187868110241   11.08158830771830
H         5.40659055209839    8.58078746899806   10.52375822157802
C         4.16710712571629    8.82257476637279   12.24447085432804
H         4.68821379446235    9.69664639019982   12.60251105013693
C         3.08447087274624    8.32284306916374   12.95085152684277
C         2.40050947190247    7.20506669850982   12.50008173648404
H         1.55983401649357    6.82470945924098   13.05898499147608
C         2.80627747782391    6.58701655249317   11.33198597604392
H         2.27687801408093    5.71482071976470   10.97797901812716
C         0.99336931065084    5.82125608105100    4.42023724519478
C        -0.17222258890732    5.28007684466332    4.95451323787551
H        -0.11033359901350    4.64200395816525    5.82370376375892
C        -1.40104062291296    5.53930014137065    4.37657731223743
H        -2.30254913002171    5.11446781751605    4.78955986939905
C        -1.46761461806784    6.35264702194351    3.25636068039940
C        -0.31869252762127    6.90268107954604    2.71015615856046
H        -0.38463399947331    7.53634805340316    1.83962017431045
C         0.90554219094101    6.63143452284406    3.29200138499270
H         1.80534608594169    7.06083742650524    2.87702224097668
C         6.79407310876430    2.61831443606190    2.34112475998142
C         7.09843231463440    1.26100554007506    2.30450970452057
H         7.00366560877446    0.67220299061084    3.20469401555637
C         7.50495849029488    0.65916378151337    1.12814020506721
H         7.73464791631454   -0.39454396194208    1.10152620644318
C         7.61464368835551    1.42227943407365   -0.02352616841188
C         7.31907551461079    2.77626415015933   -0.00769004395424
H         7.41166600237714    3.35960309505495   -0.91038709246554
C         6.90733904591050    3.36636355799439    1.17262158944897
H         6.68215525786782    4.42243460348864    1.19546603705295
C         9.69707364043216    3.86424266402936    8.53499497304392
C        10.85069915151575    4.44523435125383    8.01674785770101
H        10.77276355185297    5.10459009823678    7.16598216169256
C        12.08447362050148    4.20404241173164    8.59150084680258
H        12.97526463681396    4.66236275009835    8.19122374737410
C        12.17063259439018    3.36492621947288    9.69096269965943
C        11.03503357786869    2.77154263179082   10.21894167629173
H        11.11553865351050    2.11751462979093   11.07320179067632
C         9.80512406906165    3.02711509684366    9.64167480958284
H         8.91419972523135    2.56825498169766   10.04314862676880
C         4.32030904483101    2.36542354059837    7.86219926674007
C         5.00094687962964    2.19743793296036    9.18525518062746
C         4.56335452408303    2.93108996361712   10.28009577554396
H         3.70521520288097    3.57945106490289   10.17607724312381
C         5.22536804032293    2.83128218296133   11.49039982541833
H         4.88617529330867    3.40996282588805   12.33695539188872
C         6.31788390799662    1.98995481815989   11.61595765913200
H         6.83064994993238    1.90764130789761   12.56299328162529
C         6.75252044379950    1.25355422080279   10.52623541059316
H         7.59518922970777    0.58372361661966   10.62534757153819
C         6.10493734250938    1.36492265974279    9.30793582418131
H         6.45029297549855    0.80457825824671    8.45070981999539
C         3.25435641645920    1.42189094561667    7.48833991484545
C         2.90432096312630    0.35520119986120    8.31366694272850
H         3.42741149740887    0.20471472486160    9.24730387335582
C         1.89113796026890   -0.50778823208283    7.93885049385443
H         1.62623120767541   -1.33407824885685    8.58248531028468
C         1.21518378470898   -0.31705276999927    6.74461930752341
H         0.42417549692476   -0.99380312949126    6.45709907857641
C         1.55596530670769    0.74475812460229    5.92009599494242
H         1.03016614802941    0.89813666695058    4.98879259978209
C         2.56785948377643    1.60798270097487    6.28695376274235
H         2.84211883580716    2.44049444714677    5.65366747263995
C         6.94404842560504    7.20169096607984    5.50456796820424
C         8.06638267583709    7.53915020609000    6.42147963550016
C         7.80407627815176    7.85822873692178    7.74904237217490
H         6.77697017210479    7.93034887600519    8.07802934081039
C         8.84546213587333    8.09290397486316    8.62779429126040
H         8.63468343120719    8.33615929032602    9.65889372023734
C        10.15581514762595    8.01424256206816    8.18780546877305
H        10.96977661378974    8.19406202793597    8.87419018406234
C        10.42182846765277    7.70485789122784    6.86364223061631
H        11.44412543849105    7.65021671947229    6.51712132516008
C         9.38388770269328    7.46358066940480    5.98172657227748
H         9.59034492758726    7.20457700861288    4.95253352834489
C         6.88095567716590    7.87144307879404    4.18954744196511
C         7.54267658445999    9.07419566191237    3.95205288529881
H         8.11682167580118    9.53748383758966    4.74155541975899
C         7.45443181490152    9.68295391802307    2.71345641278599
H         7.96875637621975   10.61675242470715    2.53834750726141
C         6.70834594483636    9.10419132625401    1.69986328942209
H         6.64440477709519    9.58288957876084    0.73385475499405
C         6.04071871131522    7.91158104872904    1.93151247088834
H         5.45374165734056    7.45832805229193    1.14520536443617
C         6.12344995436168    7.30071998578698    3.16664159702434
H         5.60854472227379    6.37069029594119    3.35871140777094

