75
CSD_code = JAQSID | q = 1 | S = 0 | Stoichiometry = C34H33N4NiO3(1+) | MND = 6
Ni        7.02158018295276    2.79076465589339    2.80799058868649
O         7.72876889428572    2.83372473913306    0.86004911222481
O         5.87600500131468    4.16753991119395    2.42022758740021
O         7.76421753873258    3.48869221548867   -1.28604029660770
N         5.82756148191124    2.64714929170879    4.58618438909539
N         5.12442943613443    1.51310854120816    2.18733492096978
N         8.78040874653887    4.19677247284131    3.20239473614648
N         8.37569119301700    1.49443278219284    3.13990399034499
C         7.26738620338626    3.56287059961962   -0.04097069756053
C         6.22117863161593    4.49811670162782    0.09835161844995
C         5.60996919601634    4.72832752736160    1.31329642273100
C         4.49543709457346    5.75290219863813    1.36358334044626
C         8.86529836332325    2.61548055531786   -1.51719060767967
C        10.18639206268631    3.26726785797202   -1.13233934896584
C         4.80445754889514    0.95394591400464    1.03858053599881
C         3.46533690450992    0.82024492259867    0.62053370804137
C         2.45674614165150    1.24227363654846    1.44145243874237
C         2.77741881533218    1.79637299495757    2.69548122009290
C         1.78168560014994    2.20846568887442    3.62216419014087
C         2.12919122283431    2.70629986552359    4.83265342140826
C         3.49629516410629    2.85005496391609    5.19690351093035
C         3.88600592707275    3.34921833760599    6.45281261921666
C         5.21775412095724    3.44806579316985    6.74636517597541
C         6.17651562779997    3.08944794681084    5.78062492078646
C         4.51651399292981    2.49261361169946    4.28887956638171
C         4.14485420943511    1.92680894190912    3.01733755853900
C         5.89772985009651    0.42087777811873    0.17290996125773
C         7.62365930669455    3.18356921700031    6.12843201751610
C         8.93924378446446    5.50284186908059    3.25743386213757
C        10.15861350428453    6.11412979056890    2.90262686924010
C        11.21898983383317    5.33911475518725    2.51981456493730
C        11.07488484937911    3.93837812689957    2.48930228164096
C        12.13507853563397    3.06109160591949    2.13402327760374
C        11.95005797163680    1.71926277881265    2.14773846119517
C        10.69391598324824    1.15323943705300    2.50218990761916
C        10.48962492094923   -0.23668318490159    2.55467099080124
C         9.27400121786923   -0.70853418338533    2.96342477524696
C         8.22688004863810    0.18417921401013    3.26110606794163
C         9.60180329254275    1.98893034529785    2.81946078201708
C         9.81189787675977    3.41044178244362    2.83019409121315
C         7.79602209838608    6.33177100355276    3.73546540883040
C         6.93959325033310   -0.39052231423158    3.74775324771833
H         5.91785624107181    5.04226982031397   -0.77793029962099
H         4.18974846592380    5.91706627519412    2.39352517674939
H         4.82501479960262    6.68982109546178    0.92348626642672
H         3.64350480707818    5.38893894848661    0.79359975769140
H         8.72148250477308    1.68762084895206   -0.95278025884935
H         8.83458014020505    2.40463042395151   -2.58794619812727
H        10.19604767742758    3.49047728440628   -0.06806724351109
H        11.00774988098257    2.59357916913680   -1.35868177920823
H        10.32180501861379    4.19208655344572   -1.68716153681319
H         3.25468667421238    0.37898001995009   -0.34112232795758
H         1.42067719993465    1.14707184249920    1.15172882753002
H         3.13109102854564    3.63921505269900    7.16830990029470
H         5.55147991235023    3.80863163395528    7.70658108776043
H         0.74491028348453    2.10417456332023    3.34006053754904
H         1.37798742914248    3.00690804906468    5.54710823431854
H         5.77106515417154   -0.65169217536718    0.02810528033633
H         5.86288919258158    0.89384196983355   -0.80752843533973
H         6.86364145178906    0.61695790417430    0.63097831029869
H         7.83782073879110    4.13004502795611    6.61904608929138
H         7.88637232251120    2.38197976142125    6.81860335246646
H         8.22801779874308    3.09350447772310    5.22939415138818
H        11.29496769672341   -0.90691833279765    2.29502469457124
H         9.09144235560989   -1.76779482088652    3.05431724501333
H        10.24116031685347    7.18888525857721    2.94561726693096
H        12.16659345187342    5.78029379962849    2.24844166801640
H         6.32481857912065    0.38173593473948    4.19825271160324
H         7.14060673012532   -1.17450733441991    4.47561139026065
H         6.38928514867135   -0.83582300746285    2.92106502696246
H         8.08646812640732    6.89180634921951    4.62318298056400
H         7.50644602477282    7.04944298326773    2.96969841561450
H         6.94762815681809    5.69246154455932    3.96590672151880
H        13.08717095303181    3.48999071439078    1.86135213199780
H        12.75408811114880    1.04576767536336    1.89340966541998

