63
CSD_code = JAQSOJ | q = 0 | S = 0 | Stoichiometry = C28H32O2Zr | MND = 12
Zr        1.71927160855422    5.38573667239116    5.35374740723931
O        -0.02862377308820    5.35516065188480    6.11501814012089
O         1.37275280729420    4.52431312373097    3.68860676697776
C        -0.58316316870665    4.53811025719076    7.01940829502888
C        -1.06281659643516    3.26292039125574    6.66521282340113
C        -1.64220311042287    2.46381465391322    7.63777736926544
C        -1.77134764993215    2.88150297918731    8.95542814119618
C        -1.30364381248830    4.14292318553334    9.29201525043648
C        -0.71660847830599    4.97252779517826    8.35157618723713
C        -0.97022580845015    2.78191662265881    5.24334641913089
C        -2.39727753801463    1.98118580463588    9.97895125255016
C        -0.22490646653263    6.34401464839042    8.71836907309502
C         1.18089528780545    5.02264182061256    2.46071375519744
C         2.23294064019372    4.97654946064822    1.52607094864891
C         2.04292870320341    5.47616316699084    0.24943309581831
C         0.83048409685288    6.02588788620512   -0.14193251261027
C        -0.20356169120671    6.05929833513603    0.78272192808206
C        -0.05581687896602    5.56936204394569    2.07111287439448
C        -1.21137446202468    5.60337610161502    3.03306923475206
C         0.62974246270784    6.54910423581133   -1.53321049843742
C         3.54297996790888    4.37015227152447    1.94230374597381
C         3.13388789145928    3.28203874205536    5.48390575550463
C         2.18652560457616    3.18942855932409    6.52382524213367
C         2.47586776310360    4.19995610607256    7.47051528048456
C         3.60118210322840    4.91215043437290    7.01322683259869
C         3.99926804383897    4.35774486593145    5.77574279960297
C         2.39666957928732    7.67340447279365    6.21113322408608
C         1.14488404193944    7.84678372757580    5.58285998724152
C         1.31156270722850    7.60530533797435    4.20398932753990
C         2.67311640445073    7.29723059597697    3.97507254771685
C         3.34317081305450    7.35153288699183    5.21225548672377
H        -2.00625019082211    1.48433992535240    7.35825277217198
H        -1.39728019104561    4.49137506698979   10.31158018406917
H        -0.86583888495010    1.69824277511930    5.21495101962804
H        -0.12253894290483    3.24450337282843    4.72460417322395
H        -1.88521266389608    3.04149737164062    4.70834409580181
H        -3.38165685005011    1.65276398145637    9.64850668137469
H        -2.50323643851835    2.49222685571525   10.93243026153537
H        -1.78381157424326    1.09303177677747   10.12973421492985
H        -0.91410143805305    7.10056345104232    8.33995575238489
H         0.75473869176106    6.52828036272053    8.26612241652120
H        -0.15288958176328    6.45300321775500    9.79812510039515
H         2.86123836794756    5.43619701709256   -0.45653594646624
H        -1.15685510837765    6.48007089730741    0.49255830837744
H        -0.85995822970976    5.64213491729035    4.07062200323437
H        -1.81933336518615    4.70598905802378    2.90769264383147
H        -1.84719809182034    6.46460902440865    2.83290048766035
H         0.02381457688578    7.45278955405120   -1.52226431477987
H         0.11312289665144    5.80735383555035   -2.14339990281613
H         1.58354533126069    6.77101880845549   -2.00561632561861
H         3.44709275131210    3.28523226338567    2.00627285678835
H         3.83367244495845    4.73848606818136    2.93116174668893
H         4.32402265702402    4.60544614179752    1.22309223016629
H         3.23806973836495    2.58222779834364    4.66426195962867
H         1.46773894181965    2.39207770984726    6.65739990096159
H         2.01376086140500    4.29377564559465    8.44525783711661
H         4.15151341889636    5.65367159809272    7.57957190765331
H         4.91172849050782    4.59797000483514    5.24199007783791
H         2.62683890762042    7.92144306275175    7.24107965368562
H         0.23795195592778    8.20501085405171    6.05361459356754
H         0.57077928086444    7.78008850149945    3.43527254077387
H         3.13684783650967    7.20348006946580    3.00108892601915
H         4.41632330951770    7.30166117506602    5.35140596251608

