51
CSD_code = JAQTAW | q = 0 | S = 0 | Stoichiometry = C24H24N2Zr | MND = 13
Zr        4.77137349461226    2.47898299931514   16.35264083350814
N         4.78361690826682    4.42435520659176   14.89487580435085
N         4.92702808240335    2.30157465268019   14.18546878620268
C         4.97353131798603    3.59236706983662   13.90470701559047
C         5.32296763363328    1.37601450749513   13.21438044231889
C         6.50227514385708    1.54304636110324   12.48457334790663
C         6.87721831062954    0.60564354776053   11.53987219079086
C         6.08666760489415   -0.50651557705849   11.30495987055568
C         4.91113369221057   -0.67577151231944   12.02018887351890
C         4.52727348887868    0.25544248339752   12.96497748713235
C         4.57765474988060    5.77955371992699   14.66274215013169
C         3.93444148042772    6.26452415027251   13.51924183016780
C         3.71517114276730    7.61923360633507   13.35893841929712
C         4.12317506707864    8.51798043188743   14.33008729596806
C         4.74773429637256    8.04720201059921   15.47463842703256
C         4.96986411206460    6.69572362819660   15.64447968214697
C         4.73507952190389    0.22674735153797   16.28719773697218
C         6.98368629812011    3.78689536193837   16.55529068826150
C         6.33340176434837    3.82399673837511   17.80644665129272
C         6.32761694522186    2.51127275545343   18.33241067329902
C         6.97926497717727    1.67230135633421   17.40478738028058
C         7.36086852913817    2.45537044190661   16.29602800654003
C         3.02370750667828    4.12391136400901   17.26585926839327
C         2.40920392905521    3.45922773320343   16.18437879283253
C         2.26865998638982    2.10185801147902   16.52885620263147
C         2.78828796755442    1.92758872109794   17.83465038215721
C         3.25095088591744    3.17952465156968   18.28658166937130
H         5.15943677682553    3.93061985277247   12.87165891254136
H         7.12871302727661    2.40376433836882   12.67893463738162
H         7.79447118096276    0.74346342689022   10.98580528220151
H         6.38338204093447   -1.23656399021696   10.56696037321041
H         4.28607634217679   -1.53655758471081   11.83177807924455
H         3.60248299477854    0.14304472385033   13.51454913377590
H         3.58277499040456    5.57154533239251   12.76736130660111
H         3.21408098415364    7.97543100234664   12.46986667647390
H         3.94666427485124    9.57519406128488   14.20131489925774
H         5.06091711575161    8.74128762258821   16.24172489282343
H         5.45690396990492    6.32907758950758   16.53717146993330
H         3.81203373698323   -0.18810818461535   15.85828993020793
H         4.82294274408554   -0.20562540647127   17.29631765533382
H         5.56545102631329   -0.18341983025379   15.69164993797943
H         7.26156240274598    4.64516582146372   15.95685847708385
H         6.03972837952279    4.71786458889333   18.34558112028672
H         6.03245585566607    2.22654833073371   19.33636026255142
H         7.25650471384318    0.64003598685497   17.57165397727228
H         7.95687285738485    2.11202761939723   15.45891177752551
H         3.16347088394034    5.19458675346093   17.34570583580805
H         2.01042354784344    3.93200447385988   15.29501345247799
H         1.72720998678750    1.35713180130139   15.95749629030096
H         2.70700267079065    1.02772129802934   18.43207090071500
H         3.57648266407582    3.40510859284493   19.29500481056422

