52
CSD_code = JAQXUU | q = 0 | S = 0 | Stoichiometry = C21H29PRu | MND = 9
Ru       -8.94150382488940   -3.29653772274718   -7.94472233542791
P        -9.92664538333591   -4.22848747267341   -5.96496263216510
C        -6.30200474390511   -3.11675139824325   -4.58064865727663
C        -5.68243285971747   -4.15749410381917   -3.90446539566489
C        -5.51538444936929   -5.38896297212673   -4.51668235060465
C        -5.98705952742976   -5.60096623771608   -5.80373364508479
C        -7.20004972202180   -4.68438768511063   -7.82467868282405
C        -6.90616456712089   -3.56483514986766   -8.67605303558870
C        -7.00174865883907   -2.30758320147400   -8.07967869930705
C        -7.40628437899177   -2.29019552509454   -6.70156500794493
C        -6.77730151086538   -3.31655455278278   -5.86841658399942
C        -6.63733998656084   -4.57793912312956   -6.47740461976271
C        -9.41428105814862   -4.02113607363235   -9.91285495551653
C       -10.49127700544208   -4.34182626052374   -9.06962396125192
C       -11.83150503398250   -3.62902554875969   -9.19074715720131
C       -11.91331905597919   -2.34486860650114   -8.34350155614082
C       -10.54542609898932   -1.84121843416593   -7.92384694011160
C        -9.59352635298410   -1.47203427131339   -8.89446869612719
C        -9.88322422912337   -1.57171457347166  -10.38172317762126
C        -9.46502751583288   -2.92995373628217  -10.96150731191458
C       -10.18373156924760   -3.03555719796631   -4.59111363860272
C        -9.12609733840893   -5.57736238152756   -5.00320948617313
C       -11.60422953297054   -4.98956777632346   -6.01439468570824
H        -6.41274854812271   -2.15002159735476   -4.10718429869396
H        -5.31988347315208   -4.00220384386117   -2.89836226556739
H        -5.01803606642788   -6.18967541340410   -3.98846929796912
H        -5.86249373173665   -6.56530068782394   -6.27719758587247
H        -7.13449273941097   -5.67678839069189   -8.27655833800155
H        -6.57393591182066   -3.68346892062770   -9.70356494149793
H        -6.74388418767508   -1.40190998521645   -8.62114743812428
H        -7.50827345531310   -1.30752764134667   -6.23392383871988
H        -8.78128470430803   -4.86034306400443  -10.21631190729845
H       -10.58184707916021   -5.39771138970026   -8.80405576228906
H       -12.62731088565181   -4.31396799016309   -8.89007567024711
H       -12.00081597355935   -3.39075415888595  -10.24406473483745
H       -12.51217161192086   -2.52177233900724   -7.44742965874257
H       -12.42642751809646   -1.55459481524802   -8.90559305618709
H       -10.57904958541219   -1.22064181954910   -7.02401978942830
H        -8.96467489839813   -0.61846024270555   -8.63345408054569
H        -9.34446079560005   -0.77794346612724  -10.90470347664622
H       -10.94868368912762   -1.39853471597808  -10.55240571670134
H        -8.47002716913412   -2.83780754269956  -11.40513823390726
H       -10.14516108238260   -3.23313661587862  -11.76767351021014
H       -10.88138181778336   -2.26137918135276   -4.90306904841124
H       -10.57666925786296   -3.54939460461110   -3.71434335185426
H        -9.22998980324562   -2.57424366917162   -4.34375887832970
H        -8.83903432600596   -6.38437737826692   -5.67410093233047
H        -8.23888751908276   -5.20824446984617   -4.49813748932019
H        -9.82968188386698   -5.95566379780376   -4.26209917744162
H       -12.32500540224393   -4.31223893292546   -6.45899335023935
H       -11.92174567213095   -5.23715561233978   -5.00161514566903
H       -11.56347680719816   -5.89947770815788   -6.60984581290069

