114
CSD_code = JAQYUW | q = 0 | S = 0 | Stoichiometry = C66H11AuF30N6 | MND = 4
Au        2.71428275661820    0.70453320678641   16.16911575924776
N         3.33971569787897    2.24716049719014   14.94456295482966
N         1.98741658959101   -0.29146366976099   14.51310444959383
N         0.75847040517990   -2.55207719903010   17.93405107072621
N         1.75232514271706   -1.16299167891673   21.89966026679354
N         4.01123722890976    0.41200963961624   22.17900025062371
H         3.30199611826501    0.10936910389995   21.51527811779265
N         4.87572158041981    3.08466291820518   18.85405063525656
C         3.82895318022701    3.44428921753211   15.36148758579247
C         3.92382878693621    4.34168813074766   14.24728584613844
H         4.29100252726027    5.34758200686615   14.28902212056256
C         3.47356777098891    3.66698123712531   13.16342416857836
H         3.38342601538926    4.03053043253894   12.15907758650905
C         3.10564189667285    2.35214077325342   13.61216397894042
C         2.57190610795486    1.35565320263539   12.79347144923782
C         2.10186860304774    0.11321543864908   13.22343556356439
C         1.69398528958062   -0.95162014278200   12.34912039016834
H         1.69250881447218   -0.91199694552427   11.27789251365208
C         1.34677458021198   -1.99699788158539   13.13670955609364
H         0.98739969057878   -2.95933289672749   12.83135173618234
C         1.53943549096644   -1.57429170902209   14.49269810522999
C         1.23184641148865   -2.33353695945112   15.62034775542308
C         1.29993623098922   -1.85158193459675   16.92452507805860
C         1.84561423086398   -0.57524744163829   17.38786889490977
C         1.55546250603761   -0.54646373657228   18.71366421255273
H         1.68506809746199    0.24466063856922   19.42341366458130
C         0.88474744880289   -1.79858161804117   19.03200020570719
C         0.34422457237371   -2.27251815520881   20.23500422275191
C         0.69884611079199   -1.92388536614854   21.53553419396531
C         0.04925086760598   -2.49575319717917   22.71001706504517
H        -0.83004834703504   -3.10837931275417   22.69297080223407
C         0.76905620549773   -2.09465398705191   23.77206440027275
H         0.61166045718412   -2.32922174892609   24.80569572422831
C         1.84446064416775   -1.26875343485436   23.24023735022691
C         2.89363981160525   -0.74588220815599   24.00519822506434
C         3.93841055516642    0.01658257936383   23.47784075842615
C         5.04229538119073    0.59569971607327   24.16824503432002
H         5.26871452171148    0.46486346124385   25.20734906819065
C         5.73831922799658    1.34195730769485   23.26822983377014
H         6.63110192072379    1.90584374775930   23.45196765597589
C         5.07051581999399    1.25301147368770   22.00715557865858
C         5.38463584912526    2.01128858209864   20.88294679171707
C         4.77188325955718    1.99319573014448   19.62191996385095
C         4.03442867445585    0.95135452232250   18.92077174254984
H         3.90680673693824   -0.04643567802066   19.28981858286092
C         3.68220857976733    1.45691194502203   17.71026466136103
C         4.25189001271921    2.80435453456726   17.69951204318888
C         4.25016506091663    3.72969050089834   16.65868897168850
C         2.50192235347767    1.63827959820360   11.34128183582907
C         3.65648130038471    1.85868024237508   10.59190969721083
C         3.60089144213897    2.12433496341976    9.22744446083577
C         2.36636303961133    2.17691465114668    8.58455750310140
C         1.19929571909771    1.96064618040339    9.31350496738570
C         1.27788703249322    1.69297219506765   10.67644633599166
C         0.76571376958076   -3.72756383231115   15.47040479967157
C         1.60434808695290   -4.69898567185468   14.92734818228191
C         1.24282205488599   -6.04127187298555   14.88753508809969
C         0.01951382554167   -6.44052858095178   15.41940747440220
C        -0.83440149225312   -5.48488066907652   15.96175470010874
C        -0.46495682095554   -4.14395019892603   15.97305712628970
C        -0.65597479899728   -3.34935642034770   20.03745872260369
C        -1.86406931243903   -3.06533232223903   19.40378965360454
C        -2.80994133420015   -4.05639616028634   19.16361688108547
C        -2.54143487865118   -5.37022433369530   19.54108473717588
C        -1.33262299388773   -5.67628828986911   20.16111526627194
C        -0.40769702694787   -4.66718701932370   20.40781646677443
C         2.90893242565358   -1.02221425106015   25.45848146645526
C         1.91143848422981   -0.52697748927347   26.29673505839096
C         1.91006961640993   -0.78896203491845   27.66297612643993
C         2.92534064622803   -1.56477441174760   28.21742748108901
C         3.93444244045709   -2.06714165978687   27.39939200301520
C         3.91759754171891   -1.79073712688674   26.03612147786978
C         6.42198933511709    3.06395866334838   21.01183458833128
C         6.25711400848535    4.16882367460517   21.84135084130919
C         7.20803414096115    5.18203365368299   21.89892433211489
C         8.36013148096229    5.09437771952939   21.12107083589351
C         8.54565412733842    3.99556042572050   20.28458399881453
C         7.57446257339886    3.00132349026958   20.23024066254177
C         4.75974799626217    5.07571387984855   16.99267620563192
C         6.03762541424733    5.26211110710421   17.51504619162485
C         6.46128049605213    6.50879507745438   17.96296389872488
C         5.61388122802064    7.60892604720166   17.87322530430402
C         4.34141058362430    7.44894810748783   17.33113146116409
C         3.92727152002493    6.19018384205217   16.90899615092993
F         4.84802621026098    1.79766295547279   11.19040994800041
F         4.72094987883656    2.32759929220020    8.53601595142059
F         2.30226638824079    2.43224882095216    7.28104326295683
F         0.01547309549681    2.01132723625044    8.70542108087853
F         0.14990266054694    1.50129459371944   11.36369874151880
F         2.79938999674420   -4.33997596449267   14.44692244394958
F         2.06699471300783   -6.94427172988044   14.35613253805561
F        -0.32984827884042   -7.72394834896053   15.40662798974576
F        -2.00619381494362   -5.85578739615213   16.48276017057379
F        -1.33946021338964   -3.25342342789361   16.43741286088348
F        -2.13725484895612   -1.80804501347272   19.05618318567520
F        -3.96899949105170   -3.75572535580576   18.58258518380275
F        -3.43786855106245   -6.32739342671732   19.32167837934575
F        -1.06715537106285   -6.93347746926865   20.52149884910898
F         0.74874917623347   -4.97750694934214   21.00314537593438
F         0.94208758360230    0.23236650402008   25.78210929657700
F         0.94542335408795   -0.30015105018917   28.44027795819313
F         2.93268422445561   -1.82215927631918   29.52207183150999
F         4.90998086395779   -2.80749687579876   27.92302835695080
F         4.88609311858484   -2.28725207091140   25.26234636138906
F         5.15478132920326    4.26760014577036   22.59274326043637
F         7.02195707668988    6.23233791013406   22.70003003056173
F         9.28187649291717    6.04923135103152   21.18785005774715
F         9.65097741715543    3.89878776512303   19.55085465064163
F         7.76995596332478    1.94368332495389   19.44443000173172
F         6.90279934389600    4.25035653740226   17.55699983790192
F         7.67983076875265    6.64626833184032   18.49124035073859
F         6.01533143653296    8.80294816580443   18.30057802254581
F         3.52125582606213    8.49507275423485   17.23173005488347
F         2.68732450369323    6.04905385038132   16.42924539590688

