55
CSD_code = JAQYEF | q = 0 | S = 0 | Stoichiometry = C21H29O3PRu | MND = 9
Ru        1.58272452396880    0.57247147817860    7.36941131134978
P         3.82793981381250    0.49464008905448    6.66964765852524
O         4.29643594050496    0.46638601159572    5.09696615290280
O         4.78674471378561   -0.70756680044179    7.15001986925443
O         4.71592101215969    1.71013543741857    7.24755603860092
C         1.69043064191781   -0.18655410692188    3.14851453014766
C         2.24972860424063   -1.27643261288571    2.49906198925202
C         2.47954884605584   -2.45608394119860    3.18527101213589
C         2.14170919291495   -2.56246697676445    4.52581535582356
C         1.18292193077815   -1.46897573839589    6.59516940443541
C        -0.05032754113534   -0.78431859586264    6.86860488793001
C        -0.24992259592258    0.41819990561051    6.18939100963075
C         0.79939919829037    0.81625206631228    5.29251638996307
C         1.38104618784158   -0.26892874045649    4.49749037435932
C         1.59954486213693   -1.47283202243705    5.19089248171038
C         1.05051063181961    0.07336748905357    9.40355389782654
C         2.45112929909330    0.13213384323667    9.30055657107365
C         3.25004456331332    1.26656374708048    9.90760569281080
C         2.80667881636701    2.64915805639525    9.39513137048936
C         2.06348176179549    2.58514562920503    8.07131399353207
C         0.67282247980459    2.41970660761842    8.00738218525851
C        -0.21172414909458    2.25982527480734    9.22703053802549
C         0.25745126951491    1.12989370102570   10.15287882937073
C         4.02782288863485    1.59222995721437    4.28592997757613
C         4.56201358998620   -2.06758721913329    6.83624147154747
C         6.12866102774142    1.73477926559877    7.08483294593042
H         1.49857361737878    0.72983982058963    2.60613755524524
H         2.50360591927375   -1.20376799051999    1.45107020766257
H         2.91572891197004   -3.30222776036806    2.67384504802465
H         2.29969123033400   -3.49345924091116    5.05421927792819
H         1.33319011424952   -2.41229028390521    7.12702126526142
H        -0.80790657543024   -1.19586794299053    7.52948597072239
H        -1.16911577288718    0.98714466559387    6.29760532575965
H         0.64226177165807    1.75431089968210    4.75344771478085
H         0.62168113424837   -0.92822010796169    9.48283220931504
H         2.98616903174589   -0.82161292737100    9.33150142048319
H         4.30055510331618    1.11165506909609    9.65886336783987
H         3.16587673500270    1.22211435392219   11.00078264230595
H         3.69025914223120    3.27579055641696    9.26807698172700
H         2.16369395910044    3.13757736730575   10.13230562891001
H         2.51041600225229    3.20497971640955    7.29200117524213
H         0.16536080721473    2.94607226476112    7.19321308259774
H        -1.22698172475800    2.04221034584968    8.88446788793123
H        -0.25512186627197    3.21233088823288    9.76984805139621
H         0.87250265394856    1.53061878209209   10.96150240592042
H        -0.61418551732216    0.66140364331536   10.61613839072892
H         4.81161729862797    2.34448688387312    4.40946207424554
H         3.06709860941656    2.04104560060574    4.54572833053648
H         4.00765133991304    1.24667529481631    3.25301198119986
H         3.66131207773498   -2.43434115753061    7.33102930230350
H         4.46669892120265   -2.20764697472911    5.75918313663708
H         5.43074288293076   -2.61303996084154    7.20687560185186
H         6.61108424626206    1.27039612235442    7.94609537002619
H         6.42498732422630    2.78254716567114    7.02010807609026
H         6.43361511210477    1.20423310163212    6.18165457786402

