61
CSD_code = JAQYAB | q = 0 | S = 0 | Stoichiometry = C24H35PRu | MND = 9
Ru        0.15512050890864    1.66549719462294    2.95206249452848
P         0.61715790184289    3.99728383895331    2.48007864983216
C         4.28147368811169    2.04635052384444    1.78899093978074
C         5.27784231002948    2.80941184135873    2.37810761740850
C         5.14914446673031    3.23568120669214    3.68997657410100
C         4.02137790186541    2.90530929485817    4.42604600039190
C         1.77856847955469    1.73971917411005    4.51927226514379
C         1.37979351225354    0.38959008177732    4.25556961430154
C         1.51293739179074   -0.04403353197622    2.93769212317178
C         2.02830521440735    0.92017357502205    2.00433828869306
C         3.14013997627969    1.72341138990741    2.51040290139312
C         3.00765947542309    2.15787611323477    3.84192673849262
C        -1.33282660095781    1.11804949679766    4.40901700894362
C        -1.72972136611953    2.35338234180969    3.87607817528824
C        -2.94112538721373    2.45920856770763    2.96118939451148
C        -2.59188666373731    2.25662802234888    1.47676932181498
C        -1.24205687535477    1.58864910577531    1.29062907476718
C        -1.02460297154168    0.28922903527614    1.79304916249043
C        -2.09259947304035   -0.46275442967734    2.56772586367089
C        -2.01557359428797   -0.19267795009725    4.07825679858326
C         1.86959446052968    4.43018993343612    1.18456820216353
C         1.57733865735549    3.78795591379200   -0.16311841333880
C         1.33704333955125    5.03964268227287    3.83248914556763
C         0.46999996372716    5.10527304267476    5.08115663912179
C        -0.79677002360949    5.07220879939551    1.92793557343439
C        -0.59084660005278    6.58174985750534    1.87072188459380
H         4.38478220616732    1.71023106680282    0.76625583364350
H         6.16079993454045    3.06883629351232    1.81177376665299
H         5.93255272902824    3.82484829548134    4.14461732781955
H         3.93008480794215    3.22761491431078    5.45522947485627
H         1.67767502722550    2.08719409017981    5.54952277157439
H         1.04124598103166   -0.27848192723499    5.04247333391309
H         1.29662781705622   -1.07033499913755    2.65544186598518
H         2.13627270111432    0.58075517683968    0.97107144726149
H        -0.94498454276361    1.14150176592292    5.43183882402442
H        -1.61301320267687    3.21417596685197    4.53493579937907
H        -3.40824811617971    3.43810142273322    3.09428573742727
H        -3.67707363864493    1.71546597817340    3.27783146181966
H        -2.59351464732684    3.21692851629495    0.96121443651604
H        -3.35802292427793    1.64088098909789    0.98915881051181
H        -0.79322754973279    1.81297718179892    0.31940227348501
H        -0.40913850961960   -0.35942654453450    1.16602492787463
H        -1.97353116437433   -1.53459208275484    2.39161564906864
H        -3.07773934680017   -0.18604200883265    2.18346557169922
H        -3.01908669250589   -0.19971792342564    4.52276464589601
H        -1.45354376922906   -0.99965702496822    4.55637324296035
H         2.83976082703748    4.09111297044222    1.55261663483001
H         1.91216412016274    5.51792593933680    1.08807379251343
H         2.38767139293963    3.98788745186871   -0.86184763145358
H         1.47947663673158    2.71103020850681   -0.04552587596678
H         0.65480733076686    4.17381500341046   -0.59206870523549
H         2.30802668845648    4.60575818096919    4.07908662237752
H         1.51359025108019    6.04168921843627    3.43385853719097
H         0.30971443758335    4.10518960440099    5.47834767076211
H        -0.49951967072476    5.54981544098880    4.86486237428332
H         0.95716535271906    5.70539142809391    5.84842489772777
H        -1.05843143952476    4.70739693880252    0.93157256146896
H        -1.63587649733704    4.84838938713553    2.58821175016823
H         0.25946476786525    6.85359408995018    1.25042335750642
H        -0.44915956365424    7.00510388980885    2.86125989824676
H        -1.47665942655766    7.04383597929812    1.43657487438166

