77
CSD_code = JAQZUW | q = 0 | S = 0 | Stoichiometry = C28H41BFeN6 | MND = 4
Fe       -0.55100237363873    3.52799607277742    9.25119775844819
C        -0.99304601610871    1.59216981191144    9.68382071305463
N         0.43588333477414    5.92134261796409    7.57911167266175
N        -0.41364463845271    4.88900126716579    7.58597051499706
N         0.35701688351752    6.23661845937124   10.05014151958478
N        -0.54460080174052    5.28156453226750   10.30081290602420
N         2.27612581702887    5.07172608004292    8.91954104870874
N         1.92770191773058    3.86728684818088    9.39939835440073
C         0.54836124876643    6.41594083205389    6.34049599560499
C        -0.28583741652555    5.69777007602955    5.51180768023018
C        -0.87721595097910    4.73895698454318    6.33959633087714
C        -1.80994375161261    3.62762093193252    5.94403812541271
C        -2.44991093357676    3.90852579263391    4.58188514355282
C        -0.97099459576949    2.34442123489090    5.86778570207676
C        -2.91233982031599    3.46744095174334    6.99315940809557
C         0.28913413880122    7.18779505206432   10.99178855450923
C        -0.69634258264147    6.84102740972012   11.88786579187600
C        -1.20415492571012    5.62852115414353   11.41463200435835
C        -2.28232579384645    4.77590851208444   12.02513197348507
C        -3.01174375813499    5.52754101603650   13.14174801403320
C        -3.28956302890832    4.38878722082580   10.93887705429176
C        -1.61296423441236    3.52335033576073   12.60345532250235
C         3.54727695055604    5.04891969418177    8.48840335998914
C         4.06386329872848    3.79930053736433    8.73830017753568
C         3.00696874847519    3.09055223357247    9.32393390880713
C         3.00960944110400    1.66995321013828    9.81147049186103
C         4.43860923183772    1.14165859779580    9.96370346890556
C         2.30689822474477    1.62184746578254   11.17148904075729
C         2.26246378221325    0.81984330498188    8.77786653338705
C         1.97866455785182    7.69956204796830    8.76330150736075
C         3.19185246437443    7.97335304428016    9.39473900040301
C         3.74406117032926    9.24273233536524    9.39765275458677
C         3.08420258945406   10.29000749746833    8.77922505641233
C         1.85516974943345   10.05697252271542    8.18738826663998
C         1.31238842620003    8.78398669514893    8.19109053287861
B         1.28742685230258    6.24360802205479    8.82412869128170
H        -2.00739508476738    1.61661070786342   10.10323866346315
H        -0.38713630953460    0.95981560966658   10.33062156957758
H        -1.06533839487061    1.08364643444676    8.71312291072966
H         1.21257014391472    7.22423651737103    6.11364046360221
H        -0.43785694930404    5.84892399054888    4.46362766593915
H        -3.15049366578207    3.11447595167215    4.33229614335157
H        -1.69738238042918    3.95367602768529    3.79913920659902
H        -2.99062276824399    4.85198140062394    4.60001315139484
H        -1.60393378975976    1.47918274449855    5.68212064352673
H        -0.43331053783226    2.20378582389318    6.80886142175817
H        -0.23861704880038    2.41780829037625    5.06668985790021
H        -3.59522061878477    2.67036110234266    6.70830924135393
H        -3.47747041772799    4.39046181606971    7.09604172289050
H        -2.47044354183229    3.21836037373115    7.96193819660190
H         0.92919075830881    8.04544177125803   10.97773704247888
H        -1.00130797973158    7.39046362270601   12.75354178283292
H        -3.81149096226256    4.90689480182762   13.54004902839921
H        -3.44746164288778    6.45013465829812   12.76551615333718
H        -2.33240590767378    5.76902165600433   13.95498883533005
H        -4.03430802783300    3.70175035436246   11.33357737280517
H        -2.76783448928080    3.90923697378946   10.10759774619245
H        -3.79706293735343    5.27341777180316   10.56141041766380
H        -2.35908586196220    2.82712312882716   12.97939001565116
H        -0.94901034268803    3.79570559295934   13.42058751370974
H        -1.02191154414579    3.03427340658706   11.82759135232340
H         3.99871926124651    5.90059860874681    8.02159285131422
H         5.05548968131129    3.45684482092847    8.52732107419937
H         4.41595549142659    0.13731441101982   10.38210165376758
H         5.01561079178001    1.77902532341337   10.63005710970524
H         4.94343824737792    1.09717230290065    9.00171998707919
H         2.14690238997580    0.59281719974549   11.48668387766846
H         1.35219160240494    2.13774046689901   11.10618434378394
H         2.91456837549813    2.12334602677020   11.92162756399405
H         2.13774804552311   -0.20096529538193    9.13301510090937
H         2.81580798496324    0.79653610605320    7.84088243307760
H         1.28587203326764    1.25985503332192    8.59075723372628
H         3.71066625908026    7.18007158855847    9.91341430816913
H         4.69000020413393    9.41595591444038    9.89143272011674
H         3.51412040196422   11.28127364445656    8.77493275538962
H         1.31337910821893   10.87152883645080    7.72720025572073
H         0.33592221724542    8.63488407948714    7.75207423237311

