84
CSD_code = JARGUF | q = 0 | S = 0 | Stoichiometry = C28H52IrNP2 | MND = 6
Ir        2.47073690852372    4.99485866038689    1.38122339627835
H         2.10375291452238    5.33969030584744    2.82701236734247
P         2.24699866248770    2.78735322924656    2.14105917426607
P         1.83426831390840    7.17290341412310    0.79409465100336
C         0.43451169504316    4.69136564764545    0.91406584106313
C        -0.26401962191303    3.57962671766846    1.39271398906387
C        -1.57342870776466    3.33178210111105    1.00671928216501
H        -2.09534687357136    2.46269350615138    1.38803827234819
C        -2.21871628743791    4.19528614892126    0.13941902423772
H        -3.23569864555523    3.99785083742626   -0.16882121244190
C        -1.56028755629611    5.32376299381941   -0.31500895050310
H        -2.06940502017697    6.01614624537115   -0.97461944125413
C        -0.25158581187821    5.57245949899140    0.07474022306701
C         0.42054133940294    2.69317005171329    2.39708358498926
H         0.04728153317962    1.66608561209390    2.37609910189586
H         0.23217733975338    3.10547272727195    3.39498318719243
C         0.46091288490024    6.81453794506645   -0.39198506066899
H        -0.22492018067364    7.65952251447519   -0.50081316734782
H         0.92354988961495    6.62612985033450   -1.36837609850852
C         2.90412110699454    2.23054859308688    3.84547503064055
C         2.08695394003955    1.12152754644367    4.51274419964040
H         2.54244850030531    0.88834044729508    5.47555743573812
H         2.06204509028539    0.20674132845938    3.93286113331082
H         1.06566382507594    1.44142686990196    4.70258900091010
C         2.85397818288866    3.45395857336061    4.76246150214739
H         1.84550808551278    3.85437885803894    4.83887644525729
H         3.50289302418786    4.23676969163602    4.38274276759601
H         3.18686100618515    3.17796045040995    5.76279854682606
C         4.36776989650361    1.80832345900624    3.72106202079632
H         4.91745147855082    2.54587921536353    3.14051805593553
H         4.47241527341071    0.83237097069077    3.25408114709032
H         4.81988587118524    1.75025641517624    4.71107598057043
C         2.53599287524777    1.37226637302034    0.89107247136694
C         2.30320811172607   -0.04802211591662    1.40359843226633
H         2.36236513837608   -0.73677018140840    0.55971971018364
H         1.31597214064363   -0.15847930465531    1.84659012771957
H         3.05729090828730   -0.35213215690346    2.12376429256252
C         3.96525153484389    1.48801000673557    0.35993295563000
H         4.69321988314155    1.17855442222577    1.10394728154173
H         4.18198091007463    2.51618322018883    0.08106034628925
H         4.09389127691486    0.85275685085061   -0.51669753495448
C         1.55091643529237    1.61031843186795   -0.25785549628878
H         1.56657417446382    2.64652346797888   -0.58317626506049
H         0.53294705159041    1.36738229988713    0.03703462322291
H         1.81191774557161    0.97784294675257   -1.10714594154185
C         0.96191085541265    8.17508772085414    2.16488131068089
C        -0.23915258520568    7.34879812351997    2.63267716086090
H         0.06960601521834    6.34601558630246    2.91229892171404
H        -0.99997116244393    7.27081789105762    1.86004326470288
H        -0.68974134684056    7.82335539036671    3.50417708482551
C         0.43864349673827    9.54587590175219    1.73714762031796
H        -0.17839332394247    9.48202557579201    0.84348823181278
H         1.24406357892304   10.25581828091855    1.57139538947019
H        -0.18458526638690    9.94522878105290    2.53771019296839
C         1.91859071164764    8.34006885962643    3.34685459821993
H         1.36668611301069    8.67439262585393    4.22458403347916
H         2.69660353899289    9.06888667188492    3.14313541073417
H         2.38975120671858    7.38801561418116    3.57773728979633
C         2.91518061207391    8.37954778987835   -0.22454296884657
C         2.15200688141033    9.40027186285550   -1.07107920040674
H         1.59225872692655   10.10993113332438   -0.47457652383234
H         1.46900758074797    8.91154556086762   -1.76166219484981
H         2.87179585310891    9.96580483622107   -1.66417456427279
C         3.89243972502897    9.08390625488074    0.71567301131998
H         4.70941332121648    9.52569833456535    0.14471450902645
H         4.31236276009156    8.36638677361524    1.41844885766959
H         3.40957043133049    9.88332464456932    1.27094650494099
C         3.73303303164958    7.51991470014707   -1.19073600003896
H         3.08745217925333    7.01255221555055   -1.90462590083716
H         4.31114757907870    6.77654258002102   -0.64896027828859
H         4.42347064235001    8.14988166424907   -1.75247749702485
C         2.95255879539716    4.59480973585442   -0.44331796589959
N         3.19422105764159    4.39488990509631   -1.57283128239784
C         3.52782405494919    4.18174180400942   -2.91338169370963
H         4.14153229250525    5.02529110677059   -3.25403202197272
H         2.60045612111928    4.16414451052457   -3.49993985654794
C         4.29001666671314    2.87220101759847   -3.09801508400346
H         5.19890376228461    2.87687680059312   -2.50087709860058
H         4.55627444799901    2.74904712160731   -4.14463496761659
H         3.67469644916465    2.03090858178971   -2.78949763571555
C         4.60407214020882    5.29737185142790    1.88494035300369
H         5.19850197128210    4.38873738060839    1.74358954045355
H         4.78388829586741    5.61302469006187    2.91539572282829
H         5.09235654541517    6.05424543293232    1.26360729257519

