173
CSD_code = JARKOD | q = 0 | S = 0 | Stoichiometry = C72H98S2Zn | MND = 2
Zn        6.92665591437205    8.09643097967226    6.85852016141483
S         6.66999432365109    7.53402411613681    9.09968744392935
C         6.46498520167941    5.78504082882129    9.15082092379167
C         6.07366588176071    5.24696471392369   10.38491437669911
C         5.93509819068717    3.87561368584331   10.52974094135179
H         5.63400687752772    3.48255524750598   11.48989995282310
C         6.17626645705410    3.02647351255138    9.46450935163134
H         6.07373819026885    1.95809370948917    9.58183533191022
C         6.54014379331730    3.56138441109332    8.24521734227550
H         6.72169331316654    2.91407777068715    7.39843273796816
C         6.68571677910098    4.93580798136111    8.06791269661350
C         7.04817100526331    5.36184521693323    6.69244782940425
C         6.04175149230503    5.41927394866769    5.71390250853117
C         6.40158782356272    5.47427836682068    4.37441192189521
H         5.62328054954693    5.48894960662500    3.63081268079687
C         7.72851736571748    5.49169694534873    3.97775276323027
C         8.71105144617109    5.48894200818289    4.95993088906088
H         9.74659740016606    5.51388323863090    4.65583148037489
C         8.40005898700654    5.42400395997734    6.30947039142363
C         4.57936820267621    5.35975680794327    6.09975241651465
H         4.49686136407187    5.54998593265580    7.17631299508056
C         4.00616782980914    3.96896575408531    5.81686952390312
H         4.50543040950183    3.21859518785567    6.42458327475335
H         4.13714025513622    3.70962097212462    4.76860427992351
H         2.94367181126192    3.94830548684388    6.04987781604430
C         3.76588385400428    6.42649340928329    5.36321036417758
H         4.27730448799625    7.38839589732364    5.40208820467758
H         2.78546585573979    6.53325989782924    5.82250100074133
H         3.62206601304825    6.16113472039954    4.31897032608263
C         8.14528660209664    5.46588562421069    2.52726027852282
H         8.99136353276217    6.15304405861377    2.41284276480217
C         8.61147832307540    4.04914400878283    2.17154624348233
H         7.79293568460925    3.34307975443567    2.29852642237913
H         9.43307374498199    3.73725985110430    2.81233322737239
H         8.94439610263521    4.00691867590675    1.13657759844231
C         7.04704248650966    5.91644361642399    1.57076829996055
H         7.44742747647500    6.00170302502357    0.56409309451529
H         6.67088076245829    6.89055933845334    1.86930103273446
H         6.22818532057389    5.20044113008836    1.54580327334906
C         9.49333117451353    5.33051658328868    7.35152074078714
H         9.07394244473410    5.62983715817967    8.31861168270392
C        10.67175205102874    6.25316024549036    7.03503677798945
H        10.31723669487206    7.23698282805131    6.73346910737703
H        11.28350566181474    5.84815043180402    6.23257275814802
H        11.30188171400854    6.36548012031296    7.91462881203052
C         9.97605014807895    3.88228057103510    7.47209063423609
H        10.79035016984219    3.81867405854797    8.19066653643882
H        10.33191746902514    3.52096362241005    6.50934737942358
H         9.16905254530466    3.23619261588127    7.80858051349584
C         5.78037476948895    6.12273195781125   11.54476564907623
C         4.49305759285173    6.63499131830210   11.71300732795229
C         4.20902822226983    7.39339513714410   12.83879808647710
H         3.21055179011042    7.77954387704524   12.96987226186934
C         5.17368474230904    7.65573428246435   13.79739784585350
C         6.45156373894389    7.15261641630549   13.60116632405728
H         7.21293507179315    7.36584950740810   14.33780930445080
C         6.77186098091479    6.38557436450169   12.49182969992101
C         3.41219785123652    6.37746430155895   10.68738537782429
H         3.81302816875085    5.70467636293026    9.92241982316085
C         3.01602266483979    7.68634219083715   10.00144090775294
H         3.89550079565067    8.14978354379035    9.55947602381378
H         2.58045995020462    8.38141513710351   10.71600614106313
H         2.28614547978162    7.49798932272729    9.21591202139178
C         2.19663270951341    5.69394300873291   11.31586475701619
H         2.49749644752259    4.77626501168850   11.81689035027456
H         1.46821669184060    5.44435457667314   10.54677832148714
H         1.71369158539162    6.34052724175146   12.04422124545151
C         4.85907834328161    8.41290248876311   15.06648026245996
H         5.79293353936753    8.85209911174173   15.43775413656216
C         4.34866575283952    7.42407708541421   16.11991484117859
H         5.08965945302928    6.64956320579513   16.30497822034405
H         3.43457675135570    6.94602665583333   15.77384721079408
H         4.13967554254590    7.93756948275911   17.05627277244311
C         3.84747437123111    9.54142504452845   14.86833468003725
H         4.12664522185861   10.16525280025393   14.02245841455515
H         3.80642440236994   10.16449714768366   15.75972984658020
H         2.85005090953819    9.14594074234548   14.69250961451721
C         8.17783729191364    5.86228835385073   12.30338216094772
H         8.17819024147466    5.17576313277868   11.45057084139203
C         9.12830838520669    7.01618181048463   11.97545813502994
H         8.78854403643621    7.53196031472194   11.07981475505754
H        10.13399017753426    6.63908395536398   11.79932177543008
H         9.16483206206745    7.73053212353271   12.79501110704302
C         8.66127142774365    5.08588707287820   13.52915068060597
H         7.95477670388137    4.29751006523842   13.78018691984475
H         8.76958075363842    5.73827292797837   14.39183925502580
H         9.62823708708901    4.63039881196615   13.32508856213920
S         7.18334567555078    8.65882471293966    4.61735290960859
C         7.38832237560302   10.40781113401211    4.56620910307833
C         7.77961214618323   10.94588845016686    3.33210701955631
C         7.91816242065498   12.31724054325265    3.18727404688756
H         8.21923185361775   12.71029920281490    2.22710828502676
C         7.67700388983234   13.16638121145642    4.25250743070192
H         7.77952032204278   14.23476161214364    4.13517682084542
C         7.31314902452653   12.63147003248882    5.47180603835383
H         7.13160306945204   13.27877744943188    6.31859085392142
C         7.16759416438049   11.25704554132226    5.64911677641206
C         6.80515311715513   10.83100898480314    7.02458518548626
C         7.81158190775642   10.77356535532864    8.00312002381947
C         7.45175769072298   10.71856353457788    9.34261401113760
H         8.23007144171994   10.70388151993023   10.08620619959880
C         6.12483154341717   10.70116268605742    9.73928590715624
C         5.14228764317317   10.70393412844838    8.75711792052294
H         4.10674419367398   10.67901041011786    9.06122772927366
C         5.45326811167584   10.76886918430803    7.40757569322291
C         9.27396132079648   10.83307186608426    7.61725386565413
H         9.35645592284810   10.64282740194469    6.54069505785453
C         9.84716550903078   12.22386699243265    7.90010965836554
H         9.34789583781472   12.97422862053899    7.29239061211649
H         9.71620483781601   12.48322691126331    8.94837265114721
H        10.90965885231490   12.24452390966612    7.66708895484225
C        10.08745331090173    9.76634525116552    8.35380179752153
H         9.57603084143053    8.80444295708230    8.31494633941105
H        11.06786479984810    9.65956980686497    7.89449934293605
H        10.23128656637516   10.03172113252692    9.39803537608433
C         5.70807770661954   10.72698123664637   11.18978243415390
H         4.86197420323184   10.03985617550060   11.30420405320135
C         5.24194584302045   12.14373982309318   11.54550760265043
H         6.06051366032020   12.84977307854648   11.41851768689568
H         4.42035344533605   12.45565690441786   10.90473261883219
H         4.90904382047195   12.18597571589155   12.58048091581886
C         6.80631433206985   10.27637264855262   12.14625927991286
H         6.40593657898668   10.19111395707184   13.15293738535337
H         7.18243865414646    9.30224760862850   11.84770969989271
H         7.62519723808193   10.99234544830694   12.17122599092101
C         4.35998586959067   10.86237291279427    6.36553770275260
H         4.77937226570680   10.56309592309219    5.39843229557382
C         3.18158924385636    9.93969112947769    6.68199979473204
H         3.53613156551311    8.95586058174031    6.98351009891050
H         2.56984531368698   10.34464684515257    7.48449829978673
H         2.55144309342898    9.82740283181940    5.80241554623062
C         3.87723509347522   12.31060288227311    6.24502591155808
H         3.06292914008034   12.37421968048715    5.52645765648013
H         3.52136626924726   12.67187620051978    7.20778492193831
H         4.68421717125362   12.95672044775585    5.90855553549033
C         8.07288207430810   10.07012318043949    2.17224897348522
C         9.36020341786423    9.55789003428745    2.00396262966618
C         9.64420982827948    8.79949370636003    0.87816067651090
H        10.64268957681734    8.41336551295307    0.74705251738018
C         8.67952598301445    8.53713821903001   -0.08040673976001
C         7.40164236585879    9.04022686337643    0.11587131969904
H         6.64024972261841    8.82697719485113   -0.62074487676681
C         7.08136714654936    9.80725877601991    1.22522073219708
C        10.44109123852734    9.81543467977663    3.02955055429955
H        10.04027598084720   10.48822346571598    3.79452331823054
C        10.83729835027644    8.50656456325297    3.71549197740154
H         9.95783842033899    8.04312071860625    4.15749055670791
H        11.27284126816970    7.81148907416778    3.00091709210443
H        11.56720118745141    8.69492830552187    4.50099443828249
C        11.65663233484332   10.49896330853798    2.40103257764070
H        11.35574508601408   11.41663146650847    1.90000305645247
H        12.38506420564692   10.74857016222164    3.17009797886667
H        12.13956381911169    9.85237608532008    1.67267237479768
C         8.99409902745456    7.77998327207378   -1.34950558042275
H         8.06024866078255    7.34072058676198   -1.72071360866365
C         9.50436939335515    8.76883844259302   -2.40298112338677
H         8.76330933845916    9.54330074871029   -2.58799422650324
H        10.41844984183429    9.24695294329984   -2.05697943141602
H         9.71332845922069    8.25535724503740   -3.33935226966515
C        10.00579566567060    6.65153239718778   -1.15142690551154
H         9.72672914934649    6.02769220203749   -0.30552535473346
H        10.04682351807581    6.02845543343800   -2.04281975019281
H        11.00320489176104    7.04708675868309   -0.97567841103391
C         5.67538428454820   10.33050785124140    1.41372157407262
H         5.67504389037773   11.01702702771479    2.26653776694784
C         4.72495448516360    9.17658721959790    1.74167018675303
H         5.06476667889947    8.66080759350328    2.63729473456502
H         3.71927022575882    9.55365813758265    1.91785003282532
H         4.68841624211998    8.46224491207883    0.92211080787399
C         5.19188750352262   11.10690530188625    0.18797540906091
H         5.89835182617494   11.89530399607316   -0.06307817763251
H         5.08356693493284   10.45452340454879   -0.67471481426364
H         4.22491618478097   11.56236510870588    0.39207417639369

