36
CSD_code = JARMOF | q = 0 | S = 0 | Stoichiometry = C10H13N5NiO5S2 | MND = 6
Ni        4.89670275817680    1.90024975847838    2.36589082131979
S         7.15292397678983    5.35914764586844    4.12208205514960
S         2.15770590744526    4.64399319171804    0.10693255559019
O         6.03020599828168    0.73382817519064    3.35211352674416
O         6.53075167860627   -0.48504093003238    5.11071215364887
O         3.92355584692230    0.42856956118270    1.65272141369571
O         2.36187700060676   -1.11514829974460    1.74100951700046
O         6.42719715450961    1.44190767914707    0.53723686530117
N         5.84096933078681    3.46979832813340    2.98766112372357
N         7.78450635384965    2.72436277551850    4.05110475527929
N         3.83799708360758    3.18298244972711    1.37959425916414
N         2.54857213467198    1.97416812761721   -0.14935356385876
N         3.48288921100316    1.27060116500228    4.23099995833848
C         6.91181410231582    3.66879012832674    3.70931181756610
C         5.73621084984863    5.76045127907051    3.21147828792170
H         5.41724272493680    6.77712983319446    3.12232956626860
C         5.18545070123731    4.64119290595774    2.67939524265835
C         4.06617534615758    4.48091831313328    1.77982119668396
C         3.25135281744080    5.40477068434737    1.21263001743998
H         3.22742489308659    6.46373188075052    1.35876782306045
C         2.89318049625532    3.09339205192009    0.48166797921528
C         5.75478639191862    0.22019607189561    4.49379037161818
C         4.41675121371168    0.62684842709739    5.15565244325847
H         3.99026135452040   -0.26546402238655    5.63076082617082
H         4.69082503908766    1.33140915337799    5.94775911388147
C         2.52982527018963    0.33558190539813    3.63158136512350
H         1.57999795787061    0.84839189269388    3.44796791773872
H         2.32721876379129   -0.52870134321369    4.27623626870233
C         2.97665650936451   -0.19668818580201    2.24915062979506
H         2.96345026811408    1.98126614916799    4.73843128940540
H         8.49602517073481    2.90152134109070    4.73718926061365
H         1.71749383350960    1.93118478747478   -0.71124622909239
H         7.50150603721088    1.76537355989145    3.84228443615966
H         5.84644668798828    0.77068645177479    0.15878444941997
H         2.97385324220690    1.11677336779943    0.20748785375787
H         7.04409589324467    0.95982373923269    1.10086263153675

