74
CSD_code = JARMAQ | q = 0 | S = 0 | Stoichiometry = C27H38BClFeN6 | MND = 4
Fe        8.56749928609845    6.47519078367742    4.49141880603348
Cl        8.94370519681682    5.67051527350276    2.69629033016407
N         8.89444559918518    8.26082478513394    6.70193206383363
N         9.13305403971250    7.01642238400000    6.28307763483120
N         6.68103135071911    8.46929019420583    5.62044685953386
N         6.72536991299659    7.21334711210222    5.15681442938106
N         8.63527135611649    9.48169418332911    4.54116203106305
N         9.54059481891136    8.64889325857437    3.99374083098695
C         9.55737675635776    8.49245510045796    7.84142631463697
C        10.25604454434184    7.35171491206953    8.17199683654558
C         9.96239641887624    6.43547671056778    7.15707835009714
C        10.49916921013804    5.04211032524316    6.97051899385767
C        11.52594123825747    5.07767679707230    5.83132190151024
C         9.36118189577961    4.09172525389216    6.59072036582605
C        11.17020245322479    4.54663894093426    8.25424111712441
C         5.41886972429117    8.91023074699257    5.63359113484985
C         4.60487123869325    7.89307110243233    5.18656124997384
C         5.46878282457791    6.83043730495613    4.89785210505174
C         5.08652228885969    5.48641427363395    4.33925076621517
C         3.65301046850103    5.13308767168819    4.75205679918123
C         5.17364866203988    5.56662616682790    2.80903059941828
C         6.03283984262892    4.39960956815096    4.85094417439607
C         8.46763305089529   10.56009667195623    3.75841405320810
C         9.32180295272830   10.44899191979360    2.68781195558375
C         9.99689439736719    9.23393952631476    2.88808776770986
C        11.14309233605124    8.71606765249632    2.06224994037003
C        11.90149471302275    7.62503307432719    2.81826022350015
C        10.61602233749668    8.16997953113281    0.73037479040078
C        12.10733096089490    9.87892557601004    1.78398807527927
C         7.77461483441408   10.54800627506665    6.80496982523912
C         6.87561994137659   10.53849125407817    7.87255368646160
C         6.70761696616259   11.63860353801150    8.69454829146275
C         7.45275567297472   12.78525507571117    8.48016429452320
C         8.37808654903186   12.80776340244108    7.45185730857453
C         8.53741690056723   11.70167216311116    6.63461614118253
B         7.99314930226950    9.22427489100389    5.91399153622612
H         9.49862626399862    9.43507738344824    8.34589386774544
H        10.88375786401698    7.20735368959633    9.02607244851835
H        12.33851146460063    5.75959790871643    6.06904184472034
H        11.04674407311680    5.42125510964563    4.91220093282100
H        11.94012447687181    4.08659271030099    5.66178905618101
H         9.73218772097686    3.07376479601739    6.50067832675427
H         8.93660573274077    4.38876334746744    5.62690912297409
H         8.57500386562872    4.11189192240438    7.34108628514116
H        12.02748959372270    5.16514131037369    8.50571937886502
H        11.51745085911152    3.52488788079681    8.11895227009042
H        10.46976344809240    4.56513752179479    9.08575071786563
H         5.17363425869511    9.90491746553564    5.94499114447296
H         3.54035307593817    7.92006752178785    5.08505235614109
H         3.40640498324669    4.13176503139478    4.40627600938071
H         2.93820643627167    5.82457975595887    4.31488177910372
H         3.54742887403236    5.16047891727066    5.83424118034058
H         4.90688739275107    4.61019236562890    2.36544231096275
H         6.18596767383510    5.82236658889371    2.50327906332662
H         4.49665791134478    6.32805940313368    2.42808923577029
H         5.70303331078415    3.42200045444172    4.50802720984666
H         6.06359401078304    4.39738238736013    5.93762058528211
H         7.04033159274772    4.57013904661820    4.46778390322459
H         7.75796302234839   11.32424114623199    4.00530434902558
H         9.44009189462381   11.14329151593465    1.88165250057909
H        12.77209600345523    7.30933481046386    2.24729593629242
H        11.26238017270972    6.76348864700347    2.97936825005798
H        12.22906468743008    7.99534496787386    3.78653049431303
H        10.06857624572777    8.94077143300718    0.19210783722022
H         9.94923066663479    7.33025696631511    0.90300416758008
H        11.44363932253158    7.83354852435127    0.10933979290567
H        11.63305268884776   10.64641284008484    1.17848054707668
H        12.98090574711791    9.51463302468334    1.24727160440555
H        12.43865163455358   10.33071283523329    2.71670112404273
H         6.30234445685132    9.64390195335271    8.07288822425810
H         5.99708832547883   11.59966522020744    9.50823618968140
H         7.32254287094286   13.64808181279500    9.11717591249473
H         8.98247895687589   13.68867059090721    7.28795428574664
H         9.28106837818928   11.73487779207165    5.85154817056452

