74
CSD_code = JARNEV | q = 0 | S = 0 | Stoichiometry = C27H38BFeIN6 | MND = 4
Fe        3.71598323231274    5.12795270122120    5.97875963621085
I         3.47100070799524    6.35066033215753    3.82747713832300
N         6.49723516717980    4.22575781008031    6.30659793048760
N         5.89059963243838    5.42626645796338    6.32817097557977
N         4.77028711796725    3.35870060425286    7.88508768368935
N         3.81766796344164    4.27397021051556    7.69132016751658
N         4.95395610582116    2.47881494536584    5.55700517235058
N         3.76817913256915    3.03488171922246    5.24999900481853
C         7.77133905785286    4.36110081105077    5.91570615648773
C         8.02076658731107    5.69978323980674    5.72619446282967
C         6.81075192066768    6.34475482647755    6.01891387707214
C         6.63573433467209    7.83625288613599    6.12678494780481
C         6.72120103780293    8.48270082194499    4.74010866984939
C         7.77763132044366    8.38015827178748    7.00176558177271
C         5.31272700663691    8.18951950456801    6.80382647470123
C         4.69526607174073    2.89901189591095    9.14203808547647
C         3.65570144337647    3.54283667785487    9.77887566722753
C         3.12177070884760    4.41130145273331    8.82120559323191
C         1.96582424959275    5.36957374060058    8.92352684053058
C         1.36587852619721    5.34641704329153   10.33005040800811
C         2.45672785273088    6.78260164264752    8.59170968577934
C         0.90186701674045    4.96886042087625    7.89616223763473
C         5.22812609840979    1.48070320385446    4.70710852435259
C         4.16332200425289    1.34571831336558    3.84818940030732
C         3.24854134518506    2.33430645894084    4.23722262170858
C         1.85283938546401    2.47475354369130    3.68979888129731
C         1.89957888979269    3.03995410451436    2.26595337873596
C         1.21446632947432    1.07643929252381    3.64853127719606
C         0.99337554992959    3.35856234553566    4.59203319567317
C         6.74096230021826    1.82812576156448    7.39101381659450
C         6.38430314765848    0.47950788117437    7.38664853809758
C         7.17657844014969   -0.48659416533935    7.98171810477484
C         8.35058114982318   -0.12636065786494    8.61957684173968
C         8.70666249966905    1.20957826543192    8.67514933851992
C         7.90711432753220    2.16763485383846    8.07654627261482
B         5.76906126457088    2.95279035503608    6.77286311497169
H         8.41164223869600    3.51142175414986    5.79278401378951
H         8.94284640688909    6.14777571161487    5.41940835930922
H         6.64929647638065    9.56437078262874    4.82891104608634
H         5.91663748948752    8.13687202113795    4.09862011347879
H         7.66690236458343    8.23684859694304    4.26330370952732
H         7.64462655709084    9.44844714800076    7.15831564317988
H         8.74319330999615    8.22425925692826    6.52921787627070
H         7.78550339655855    7.88732810578179    7.97212950107805
H         5.22879619012439    9.26748552750561    6.92178823607138
H         5.26150945536153    7.72498531227023    7.78610172510796
H         4.46912343400887    7.85009035049749    6.20793654548625
H         5.36975462439978    2.15402727179267    9.51124623520690
H         3.33401670717333    3.40218542628075   10.78939712873378
H         0.53536750467816    6.04607533956390   10.39073105732694
H         2.10967900976043    5.63250085174463   11.06959701578833
H         0.99536759114247    4.35366761959454   10.57303638308206
H         1.64204857189914    7.49847934970656    8.67240682863535
H         2.84186603272779    6.81154744726703    7.56411589683682
H         3.25288148592579    7.08426030658659    9.26766662755700
H         0.04073510153780    5.63000988315033    7.95971911132700
H         0.56916552041816    3.94715689461345    8.06226373646977
H         1.32036586682880    5.03916947162410    6.88608273782668
H         6.15035344811144    0.93882347415991    4.75928629191544
H         4.06093679268325    0.63659823601232    3.05351552553990
H         0.89586723230909    3.08210869428468    1.84902785142966
H         2.51344058553124    2.40944486582212    1.62722624948051
H         2.31702100177508    4.04180961462359    2.25715195710858
H         0.17437813853753    1.15653765788730    3.33993274900867
H         1.24805533687050    0.60929032578227    4.63092731737089
H         1.72802326914171    0.43028927555252    2.94244582826135
H        -0.01367664911866    3.43851158611183    4.18907438262041
H         1.40901250119586    4.36177557021501    4.66182872302077
H         0.93749248916977    2.92915993236081    5.58993782494780
H         5.45856282040771    0.17675790754738    6.91788876492961
H         6.87293160771699   -1.52340947104537    7.95232551639991
H         8.97399241822903   -0.87772241200428    9.08187167777879
H         9.60760385766886    1.50836256295147    9.19194487225505
H         8.19297088762122    3.20690017763120    8.15659523578347

