27
CSD_code = JARNAS | q = 0 | S = 0 | Stoichiometry = C10H12Cl2O2Ti | MND = 9
Ti        2.94580383542959    2.94199806451772   -0.25779417287217
Cl        2.16680485655207    1.43487952330373    1.22479434921861
O         2.14040531729917    1.69721525758931   -1.45243431543393
C         4.89550929843598    2.23713056469834   -1.42822782825149
H         4.92742440798895    1.60225939742421   -2.30354928734866
C         4.96339330094697    1.79820023770157   -0.08878537245402
H         5.06472142223687    0.77149659950626    0.24002280028433
C         5.00312207004280    2.94200074402960    0.74384189913926
H         5.14855918909265    2.94200174465495    1.81882928360885
C         0.88691851322744    1.73363913171913   -1.65603573298136
C         0.17972273281363    2.94200042980811   -1.69685789790533
H        -0.88252429244378    2.94200057088940   -1.87954566496570
C         0.18259685457684    0.42729059548915   -1.88173254612893
H         0.83534700780038   -0.25510622123288   -2.42252586927414
H        -0.75811796746063    0.55591024533153   -2.40731432500681
H        -0.00994081931173   -0.00844881805028   -0.89955098931379
Cl        2.16680456414533    4.44912232168547    1.22478558833007
O         2.14040393217866    4.18678470875336   -1.45242926085204
C         4.89550881442134    3.64686709428333   -1.42822888144503
H         4.92742396765139    4.28173679944841   -2.30355140695938
C         4.96339187671296    4.08579983615279   -0.08878703209899
H         5.06472006457476    5.11250409265908    0.24001932801514
C         0.88691659658176    4.15036126114341   -1.65602953570447
C         0.18259664605596    5.45670978653278   -1.88172959563228
H         0.83534657347487    6.13910610937635   -2.42252384144424
H        -0.75811809428280    5.32808990486389   -2.40731092815581
H        -0.00994066874321    5.89245001772234   -0.89954876436726

