73
CSD_code = JARQOL | q = 0 | S = 0 | Stoichiometry = C36H30AgNO3P2 | MND = 4
Ag        1.70155359042245   18.32481244946134    9.29349996281495
P         0.14494406693892   16.66065228780599    8.12546596018577
P         3.55326365414284   18.91262112737682    7.70297481498532
O         1.04800292573319   19.05275022293317   11.43921589590554
O         2.37214195833303   17.38353064266559   11.41246080303268
O         1.64695818225886   18.13928899444574   13.27301633103539
N         1.69015059424310   18.19100530265311   12.07192633069903
C        -1.57428566687105   16.71846806403155    8.73296365978782
C        -1.87810066158278   17.60275496418100    9.76209472330278
C        -3.16297971240751   17.65564104964329   10.27391746914883
C        -4.14626020163692   16.82741749421615    9.76006345628083
C        -3.84613979118122   15.94459173372038    8.73330725334814
C        -2.56472745776464   15.88503903853851    8.22015246186020
C         0.53017985741573   14.90061689327165    8.41214395671217
C         1.17387040803621   14.59513991299780    9.60837045818144
C         1.46621381623780   13.28128859926816    9.92497883780596
C         1.12184694183359   12.26505106748311    9.04862512906486
C         0.48196496569853   12.56571424137926    7.85714463704521
C         0.18168944881817   13.87730829981102    7.53686783483082
C        -0.05740670908628   16.76126886179583    6.32176590231061
C         0.90847596728410   16.19154146309793    5.49402323240358
C         0.84776270008442   16.37602343788691    4.12568050116035
C        -0.16652829407717   17.14103645109648    3.57127706155532
C        -1.11813192997154   17.72586802327253    4.39125693686296
C        -1.06188032330592   17.54540940927400    5.76143264212107
C         5.18279505756733   19.35213143528436    8.38892116168372
C         5.23528354510186   19.86962807282001    9.67801695495887
C         6.45387193826111   20.20407395280606   10.24181277550020
C         7.62145024455142   20.01914066047496    9.52067417111041
C         7.57295755244930   19.49631188336688    8.23688772538220
C         6.35902991584406   19.15955130100201    7.66901493870610
C         3.93047143797603   17.26799267337277    7.00789481039436
C         3.84109354589290   16.20068975703947    7.89933379959471
C         4.09293086079652   14.91098927694058    7.47129297791204
C         4.43919991489210   14.67885063092611    6.14881112011011
C         4.54044614910684   15.73858231899449    5.26232138627007
C         4.28664539133624   17.03206547235991    5.68549035458098
C         3.41279526256187   19.94500524552228    6.21205717777927
C         2.35856344837811   19.65287959196880    5.34763392184785
C         2.15371807305080   20.41671306477889    4.21599880741960
C         2.98646863128443   21.49292110657937    3.94840768223861
C         4.01682872633544   21.80426708913300    4.81970495490586
C         4.23081837161140   21.03828823136129    5.95288489382829
H        -1.10417334835363   18.24906847375455   10.16268133058033
H        -3.39356889988103   18.34174839499523   11.07488222032134
H        -5.14888880476742   16.86663965286177   10.15946950089861
H        -4.61474878986563   15.29850382669246    8.33454631066543
H        -2.33015481689640   15.19594308454477    7.42122886032019
H         1.45302326461191   15.39366822622484   10.28586469752244
H         1.96616171268770   13.05197863710397   10.85408300037382
H         1.35294463145694   11.23835377257139    9.29178962086164
H         0.21292344353129   11.77354510213382    7.17328369202887
H        -0.31107938795495   14.10127043257414    6.60109383408553
H         1.70496054852895   15.60478655026330    5.93009642009662
H         1.59797133819535   15.92674561938855    3.49164545126514
H        -0.21203625117061   17.28491025882942    2.50189132638196
H        -1.90489522366136   18.32897056431415    3.96206410980256
H        -1.79740950730417   18.01149525595442    6.40290579009438
H         4.31589358366162   20.00289671582973   10.23582357602402
H         6.49251036968350   20.60390707501189   11.24394403013621
H         8.57354660141004   20.27764186154421    9.95990457744439
H         8.48641269706281   19.34831735874673    7.67934738823434
H         6.31725942778819   18.74558849379258    6.67073434318394
H         3.57766201256242   16.39448403296115    8.93627638788686
H         4.01043100896211   14.08731743805507    8.16456306209873
H         4.62864334387049   13.67126953086862    5.80933042754344
H         4.81614475332144   15.55738771847282    4.23340563454408
H         4.35304138193280   17.85244437339534    4.98456189741148
H         1.70756191965993   18.81719600993556    5.56987922826709
H         1.34125267165570   20.17570024955867    3.54620602788858
H         2.82661652246296   22.09324004931743    3.06514192174272
H         4.65779632330360   22.64992660201002    4.61759967882971
H         5.03235107682740   21.28863284111159    6.63346978679939

