60
CSD_code = JARSIF | q = 0 | S = 0 | Stoichiometry = C27H19BN9O3Re | MND = 6
Re       -0.00010111057341    6.56095019919342    2.37139745090637
C         1.60408232915768    6.55274065637118    3.47265088660052
O         2.54547407778966    6.68478891017963    4.11830095237343
B         0.00006364588207    6.56110190640326   -0.96169354238316
H         0.00004075352491    6.56111898524789   -2.14582693215639
N         0.62478208542382    5.27531566668068   -0.40722364428707
N         0.77036045218694    5.06077038156452    0.89865228045404
C         1.31182996314276    3.84843915913681    1.05159997169604
C         1.52011119550548    3.27589557683898   -0.21544915156460
H         1.95438405395938    2.32436283603539   -0.44232110189454
C         1.07260883837912    4.22106414392613   -1.10620207496631
H         1.04182896200076    4.21186385934112   -2.17697488410871
N         1.78578686968991    4.08562601559852    3.37140799218100
C         1.63145989080804    3.25677755691168    2.34271521090263
C         1.77790983503645    1.87409686162273    2.48374654473124
H         1.63345506080165    1.21936785031093    1.63873560502275
C         2.09190521640016    1.36280925656793    3.72848747426655
H         2.20643516324891    0.29727089588515    3.86840022010379
C         2.25426794582055    2.23687054910970    4.79338904867426
H         2.50018185661893    1.87553409039629    5.77939524930562
C         2.08714929789624    3.59195946059952    4.55582622117098
H         2.20216270764982    4.32190552614385    5.34568673093647
C        -0.79448749816175    7.95456666847550    3.47276202006333
C        -0.80922720202613    5.17603888396137    3.47284621451781
O        -1.37951679408158    8.70392397586461    4.11839716779154
O        -1.16520922192532    4.29511010810010    4.11914035643356
N         0.80125642524180    7.74496108187744   -0.40714372934051
N        -1.42581637340063    6.66303340340125   -0.40719823923490
N         0.91431068174386    7.97824322341723    0.89875073673439
N        -1.68436388349906    6.64434137730371    0.89868341902638
C        -3.00504023422088    6.78114774756531    1.05166277497574
C         1.69317660299315    9.05359034132783    1.05167108028428
C        -3.60508144349087    6.88683981268100   -0.21537960138604
C         2.08474754057591    9.52033513009368   -0.21539299520137
H        -4.64630519072796    6.98621094160615   -0.44222803112950
H         2.69145021780713   10.37234555915952   -0.44229069053186
C        -2.56278435690965    6.80208217657064   -1.10615460476868
C         1.49017374500944    8.66005148402509   -1.10613102147992
H        -2.55540208432350    6.83328207837326   -2.17693190844398
H         1.51353876085124    8.63801185273487   -2.17690827588380
N        -3.03626797508978    6.25232174566759    3.37157360496523
N         1.25099159945554    9.34517644105362    3.37160373523381
C        -3.67722563646691    6.79993266154169    2.34278776445626
C         2.04563323898728    9.62640732250687    2.34274610935923
C        -4.94822444534931    7.36378576899932    2.48373399712617
C         3.16947414347136   10.44516292053027    2.48360644286930
H        -5.44323041826298    7.81595216670904    1.63867453588919
H         3.80843845694811   10.64784459321354    1.63847273853670
C        -5.54804033375299    7.34728112082192    3.72845125225711
C         3.45529454135360   10.97271679713359    3.72833992728629
H        -6.52831339709578    7.78039062188951    3.86829403632888
H         4.32054458242382   11.60508827735650    3.86810992959164
C        -4.87198249422642    6.77006229718826    4.79342455811824
C         2.61753836878633   10.67575292097660    4.79341254788363
H        -5.30789079044998    6.73760619367473    5.77941716634256
H         2.80756003254224   11.06935221094208    5.77942226965904
C        -3.61451535585140    6.23795077601557    4.55597499413548
C         1.52783852196660    9.85303401011843    4.55600402196058
H        -3.03969998411883    5.77364956370292    5.34586458294577
H         0.83847856292439    9.58718539935331    5.34603060466483

