94
CSD_code = JARVEE | q = 0 | S = 0 | Stoichiometry = C47H40N2OP2RuS | MND = 6
Ru        5.52164091904125    5.35997637635563    1.92670291632873
S         5.10723514158719    3.10530820080629    3.20348374648842
P         3.31117602714335    5.26653591042831    1.27154790915091
P         7.64664356666811    5.18953022089974    2.79919953688614
N         4.79390777522623    5.61962783535341    3.93946686470202
N         4.21896587171449    4.22228439927575    5.55143283360971
C         6.07882564292137    4.96841169585515    0.23150163521703
O         6.40336124186521    4.73339292300298   -0.85304751264785
C         5.67950227160774    7.39163472530006    1.56863770927895
C         4.74427995689261    8.22895580056129    2.16828929928332
H         3.92471791181495    7.80266871366365    2.73607848239652
C         4.80842090434409    9.60666772074162    2.04635557856221
H         4.06168222166570   10.22509204852324    2.52754042248144
C         5.81884092275738   10.19024155476836    1.30370457708115
H         5.87475881321787   11.26509527749419    1.20596147543960
C         6.74620955673797    9.37827861192085    0.67582747226254
H         7.53411061636423    9.81640427795582    0.07814472862754
C         6.67079030190342    8.00057000130189    0.80410517186337
H         7.40024367947389    7.39554319911318    0.27880725371132
C         4.68301116774099    4.34198827390516    4.28576194656160
C         4.39608388426139    6.34919280333200    5.02195474638351
H         4.40191576956849    7.42142633250970    5.01727753567169
C         4.03685924743805    5.50289476532382    6.02233582953920
H         3.67499158390087    5.69043131702859    7.01151232187825
C         3.97433526973760    2.99704244120627    6.25062122125486
H         4.21191279232999    2.17249596662956    5.57838769826604
H         2.92533590329711    2.93117667777096    6.54720741109259
H         4.60514816994681    2.93302269700319    7.14020630934860
C         2.88812113177598    3.94825166989068    0.07647098669619
C         1.70455312408522    4.00173359230173   -0.65493084548350
H         1.03047875631180    4.83769257027768   -0.53142535927437
C         1.39311668010931    2.99025805525455   -1.54415035878577
H         0.47451424539487    3.03947325085404   -2.11085942718629
C         2.25433473523630    1.91756773023088   -1.71107733740481
H         2.00834442955681    1.13158964462063   -2.41006267491276
C         3.42811183713031    1.85463436625787   -0.97965306631442
H         4.09985506021926    1.01780841458041   -1.10193889406852
C         3.74380536320064    2.86505756499811   -0.08936091486335
H         4.65204313953144    2.80972961768568    0.49718171081560
C         2.58657336749712    6.69581221134775    0.40010543729819
C         3.40583509473385    7.28502501825753   -0.55946734062799
H         4.40348493036081    6.88962466187183   -0.71044651000116
C         2.95599417879939    8.36376068025241   -1.29502428244885
H         3.60105837514401    8.82032463236470   -2.03065839071667
C         1.68048770596032    8.86207926944983   -1.08138898746235
H         1.32869023753859    9.71201221262936   -1.64752581161113
C         0.85379901479226    8.26628394911169   -0.14445821544189
H        -0.14593422282849    8.64522580087229    0.01404440254898
C         1.29931347150006    7.18285349974424    0.59369773420473
H         0.63984901965154    6.71948338706891    1.31498626064878
C         2.13667364836342    4.89834406401928    2.61668606811706
C         1.79200997562681    3.57669152647721    2.88970142379925
H         2.14055459837478    2.78639126898219    2.23925425395470
C         1.02218121788077    3.27327243588194    3.99781266588970
H         0.76302007270083    2.24454565789094    4.20331088333084
C         0.59275762374657    4.28071329848960    4.84603027052565
H        -0.00694860574075    4.04157537384891    5.71271485797855
C         0.93843657811609    5.59655332075090    4.58513681842996
H         0.61293606844966    6.38505781828228    5.24860951721271
C         1.71320425255525    5.90449409071246    3.48240292797754
H         1.99360704540658    6.93175430901168    3.29236359592147
C         7.64444282466708    5.47177129282654    4.59424978520825
C         7.41139880935614    6.77541086536457    5.03195316745342
H         7.28982918931870    7.56300848791942    4.29660000162500
C         7.30787028058267    7.04519651959839    6.38305405809194
H         7.14084116255639    8.05808485433133    6.72028580736256
C         7.39875258184672    6.01312556850351    7.30432193276456
H         7.31260762846838    6.22343876097444    8.36053203657649
C         7.57848575427572    4.71056364454246    6.87009144506083
H         7.62409217548285    3.90265152530505    7.58695858154914
C         7.69929560300899    4.43505547005157    5.51884142257655
H         7.82379346464802    3.41536177931529    5.17932979489590
C         8.52460047525520    3.59737769405075    2.61851442531387
C         8.06416897826870    2.62600883164626    1.74078195893715
H         7.13609583500460    2.78838647325897    1.20786192780591
C         8.78003105378840    1.45553895088254    1.56047444140939
H         8.41386233374344    0.70152935945945    0.87940038269675
C         9.96173566929180    1.25262302709391    2.25189030114605
H        10.51904908891550    0.33746240683160    2.11469031566140
C        10.43472765563978    2.22693811834807    3.11772687959451
H        11.36173382005311    2.07289451255059    3.65122979819208
C         9.72586846619940    3.39898345180187    3.29606473948207
H        10.09937455074550    4.16743313914081    3.96060352145422
C         9.04781285447808    6.20625033574625    2.20658882082063
C         9.37811623084660    6.01198520685188    0.86591704498102
H         8.79063579675591    5.31857344445482    0.27599265938554
C        10.43950049202494    6.68784516664983    0.29844071475704
H        10.68466327096049    6.53254889171443   -0.74203215247635
C        11.18768738631072    7.56651367216482    1.06679209820391
H        12.01596354508145    8.10137372731522    0.62589082002403
C        10.87507672940935    7.75088978187899    2.40149450580591
H        11.46338758254609    8.42625333713865    3.00605884371188
C         9.81236902967816    7.07180220708661    2.97512826622991
H         9.59256039838815    7.21805376295692    4.02268513436081

