102
CSD_code = JARVAA | q = 0 | S = 0 | Stoichiometry = C49H46N2OP2RuS | MND = 6
Ru        8.34569084537424    7.80452585002174    4.94904750968045
P         7.59477751467335    7.86623373762870    2.77922192401696
P         9.39839138473085    7.79997383734809    7.00303760825626
S        10.71602717750639    7.74592817633107    3.80808463513552
N         9.19512664519329    9.73625803903801    4.63161051630320
N        11.09349299150898   10.47268459619199    3.77977595495458
O         7.37939401068325    5.02292707127549    5.43383929234280
C         7.75600624831503    6.09555189707527    5.21860600798561
C         6.58387620950408    8.59359238063671    5.65888309830088
H         5.62006510647137    8.20364481954852    5.32004429149882
C         6.57500071469336    9.63199424502745    6.48848535131944
H         7.51894359061462   10.01338363181646    6.87391127510980
C         5.40703415094774   10.31380141523942    7.03224279996531
C         4.05480371854062    9.99042585361377    6.45470892814680
H         4.12590043251214    9.93816090981140    5.36497462524858
H         3.75253150210744    8.99906174348500    6.80768925287926
C         3.00489270985706   11.02143040746345    6.85776978104085
H         3.19617461364551   11.96103272381474    6.33399540880374
H         2.01154996516802   10.67125988285678    6.56825483404473
C         3.06943443460610   11.26499292208715    8.36038125606138
H         2.96649262380965   10.31118260779601    8.88227840957222
H         2.25362685910364   11.91693513689585    8.68074091500016
C         4.41382941446142   11.89332036154050    8.71210873553490
H         4.56627107102170   11.88358947133246    9.79539522446485
H         4.42214734109703   12.94483726148417    8.39966735138444
C         5.54379758264429   11.17533517047596    8.04357190678038
H         6.53089191485488   11.39030731102133    8.43466554465641
C        10.34709407660923    9.38279136135689    4.07366235166047
C         9.19548080083782   11.09783230398795    4.70022442600424
H         8.36586713536771   11.64015753117214    5.10971348176325
C        10.36020608208320   11.56746430658900    4.17967474782747
H        10.73130303773805   12.56308049376561    4.05449442435978
C        12.39045133800271   10.46998997512171    3.17343606938332
H        12.66744678484821    9.43416564946237    2.97724872026380
H        13.12586367506619   10.91972574436560    3.84429861094359
H        12.37167677648273   11.02482295564903    2.23278365550872
C         8.01923786367721    6.46806197353363    1.68519950399957
C         8.76391968774422    5.39556516115101    2.15565778800054
H         9.12606999779961    5.40702910639105    3.17532235277590
C         9.05341007780540    4.33056462797382    1.32065141634137
H         9.63577948177064    3.50006815389816    1.69158087633291
C         8.59775318597032    4.33097531499980    0.01373407234972
H         8.82260648909757    3.49960129780058   -0.63834718449433
C         7.85150610800637    5.39930260854330   -0.46059239150746
H         7.49513538370489    5.39946836672910   -1.48068417115925
C         7.55968195709109    6.46365907764559    0.36979782029395
H         6.97514472016390    7.29720697991282    0.00341514163697
C         8.20955939922139    9.29490994171477    1.83769849366122
C         7.67790879445092   10.54953103530776    2.13151399716409
H         6.87450217404315   10.62509404651903    2.85473042546569
C         8.18583609234351   11.67904777053862    1.51865358393187
H         7.76644112695418   12.64928151582911    1.74289800064708
C         9.24390725730570   11.56801288138471    0.62994797376699
H         9.64434922790809   12.45242297632679    0.15536794198825
C         9.79642997383869   10.32673561058410    0.36061256166961
H        10.63264980703525   10.24210266038530   -0.31896570530510
C         9.28516253047906    9.19026823723428    0.96249085061189
H         9.72721757952594    8.22279999974432    0.76672598444553
C         5.79731724362914    7.88304450655027    2.44887881937347
C         5.06499850562057    6.90553969223751    3.11931004888098
H         5.58431209595184    6.23422814672747    3.79307061284869
C         3.70137018200954    6.79622989096655    2.92822249001051
H         3.14105511908959    6.03748081285359    3.45460291473338
C         3.05362252094136    7.66388875065670    2.06263181317492
H         1.98629262238419    7.58673015750450    1.91610836465027
C         3.77793128857809    8.62727622652817    1.38238078273445
H         3.27689932264665    9.29868686799908    0.69962955915209
C         5.14595899274616    8.73706507387374    1.56802143890336
H         5.69862532973825    9.49003717073695    1.02348568902455
C        10.25706505215509    6.24937847694097    7.45381415183345
C        10.56939512722143    5.32302458531889    6.46521502260503
H        10.30231044028245    5.53213727406440    5.43689019225865
C        11.23327022407081    4.15328757817282    6.78771222420823
H        11.47019389376526    3.43898281660845    6.01273179353731
C        11.59182627566150    3.90025610265452    8.10066538818117
H        12.10793591423275    2.98585667510359    8.35499240989520
C        11.29058209990728    4.82317148593692    9.08963849747935
H        11.57422359878869    4.62953192503659   10.11421775053380
C        10.62702794825620    5.99337645699140    8.77133897758514
H        10.39073976229177    6.70826291556411    9.54708960044856
C        10.76373637119401    8.99957884187779    7.14051842299800
C        12.06156595244573    8.61276947428022    6.81514208190366
H        12.27028976523185    7.57768050928044    6.58193572195484
C        13.07696114410944    9.55089622170990    6.77373651828198
H        14.08043150993263    9.24174513451844    6.51829104095577
C        12.80904616341384   10.88156032091217    7.05000724278958
H        13.60357475466235   11.61346105402152    7.01616296007686
C        11.51832993581580   11.27499205748774    7.36395677344628
H        11.30280404205980   12.31375968799161    7.56995342543048
C        10.49869373485497   10.34247926714204    7.40054921211063
H         9.48883542235927   10.65723581100793    7.62654945182882
C         8.40871169656875    8.05177181774039    8.51401928609500
C         8.81002474966590    8.80291185445628    9.61209451634059
H         9.77794996386363    9.28580786238298    9.62154871610824
C         7.96626379441593    8.93695125235944   10.70179545580501
H         8.27948442331586    9.52914601560271   11.54994757432146
C         6.72758859195961    8.31965508221420   10.70684831796320
H         6.06935140337439    8.43860705621566   11.55492485826873
C         6.33560018877037    7.54639869980448    9.62562705612234
H         5.37406816743393    7.05486764997680    9.63226068864414
C         7.17193831212324    7.41246145090359    8.53497554243930
H         6.87452695569156    6.82317816271926    7.67526833531433

