112
CSD_code = JASBOV | q = 0 | S = 0 | Stoichiometry = C49H57FeO2P3 | MND = 5
Fe        2.71143788027717    3.09934048318241    3.98631935890406
O         3.13886230152499    1.23539680381316    3.49852883623190
O         2.09011720149209    4.84433443942842    4.66972766485895
P         0.94409313646452    3.20827641459192    2.71137471303647
P         4.03940692141077    4.04834352242417    2.56519406988856
P         4.12275871889739    2.76066024719714    5.62146316806950
C         3.96054985274557    0.49965357289486    4.19179260205330
C         4.63058908988924    1.05204759144538    5.31095268314279
C         5.51224566312556    0.30975471875276    6.08629356345243
H         5.99606214000350    0.76239116899908    6.94137907291433
C         5.76552126992454   -1.00617388790803    5.76208678895525
C         5.10712878140616   -1.56017380439456    4.66168553078805
H         5.32123316791235   -2.59366287088485    4.43822705128360
C         4.21630824564831   -0.86377260392634    3.87141635246036
C         3.49788359135673   -1.50894870911545    2.69340433004502
C         3.84297951039417   -0.73531637951397    1.41442368768621
H         4.91442694000392   -0.77698934296369    1.22520301975581
H         3.54497977765018    0.30205845511204    1.52407687942949
H         3.32303950537144   -1.16447487411467    0.55962591663052
C         1.98451792964394   -1.44102028824957    2.93868142986573
H         1.72300514503324   -1.97754442554716    3.84912219070733
H         1.44327811463878   -1.88746518847640    2.10595721104526
H         1.66997274456033   -0.40746640473155    3.04497568879025
C         3.88338270140296   -2.97644547513549    2.48643905946953
H         3.62626881559598   -3.57814159227020    3.35540802193785
H         4.94686429634253   -3.07951865600669    2.28191249333220
H         3.33740416880345   -3.37176289246590    1.63153091803172
C         6.71294307006456   -1.84563870409037    6.56941779009191
H         7.49512510049962   -2.26121230336267    5.93414238029445
H         6.18535761940939   -2.67867467811415    7.03473880052174
H         7.18093515964428   -1.25443482175576    7.35341194749997
C         5.57269036412119    3.64657269852185    6.27184322450750
C         6.88059957018941    3.25238033795803    6.01049944294800
H         7.06603608968854    2.35728898732527    5.43240358523283
C         7.93965341990760    3.99922064593912    6.49608618626972
H         8.95432225176127    3.68175108453758    6.30226182893485
C         7.70272436183149    5.15140951042195    7.22723213427907
H         8.53204885745891    5.73108175998280    7.60543982774385
C         6.40084091857490    5.56325988492153    7.46756972734066
H         6.21556195339318    6.46823713740848    8.02790586256018
C         5.34059570938595    4.81745107239255    6.99001773056531
H         4.32197580958020    5.13427046081606    7.16521004112129
C         3.14425663802071    2.58762128130591    7.16290645108997
C         1.76179959177351    2.73262848840544    7.09672478022482
H         1.30002047645614    3.02642135472923    6.15925500836245
C         0.98093258036007    2.54827265920576    8.22381355295524
H        -0.09122875584310    2.66700460684554    8.16080482472067
C         1.57645320456367    2.22066982893231    9.42994779534309
H         0.96983412779296    2.07836822656879   10.31234812303666
C         2.95387238402985    2.08440658787552    9.50676924853297
H         3.41948955000425    1.83728451198072   10.45008139544753
C         3.73573336972683    2.26443847018465    8.38135753106885
H         4.80987269850957    2.16649326380021    8.44804524270441
C         1.00232591701258    5.41209942240407    4.23620314132483
C         0.22411009017338    4.78394416798663    3.23304773985486
C        -0.96308530611855    5.33564901669551    2.76849132177200
H        -1.54757821965024    4.81373670981233    2.02268197751826
C        -1.39543564163829    6.54638052051526    3.26783450158825
C        -0.62137180645031    7.18288166162007    4.24160977012841
H        -0.98509290212566    8.12975137908773    4.60938056688252
C         0.55354904947108    6.66321479320234    4.74361429968856
C         1.36526955190795    7.36203367466472    5.82643546607789
C         2.79296006338425    7.60263229128542    5.31574503707320
H         2.77577856152371    8.24313785180062    4.43504829508196
H         3.25915810077385    6.65610962540494    5.05706360054319
H         3.39165341857875    8.08795646372821    6.08452886155540
C         1.41247263631588    6.45713594020540    7.06535018084782
H         1.99423297713579    6.92678780123214    7.85688245304071
H         1.86880936931775    5.50471065894224    6.81289065412295
H         0.40658134725978    6.27128806988878    7.43787897499406
C         0.77132098113125    8.71187250620059    6.23868992914518
H         0.72496581530003    9.39539324413669    5.39355058026318
H         1.40279526161968    9.16303113179556    7.00209667106135
H        -0.22575198524959    8.59261534710482    6.65671643515748
C        -2.67399491985132    7.17731326925324    2.79719540385367
H        -2.49914351873953    8.20022939385922    2.46468690697383
H        -3.40411846649916    7.21107981693500    3.60639101323738
H        -3.10311592413646    6.61264459508601    1.97252373772285
C         0.76678692682072    3.08586461166629    0.90344968641241
C         0.50071792070577    4.16444378529469    0.06764850129160
H         0.32462945933923    5.14483179039104    0.48924431824669
C         0.44314138450634    3.97976699809672   -1.30357484010739
H         0.22644257744649    4.81939010457437   -1.94851341171394
C         0.66182908247699    2.72621597592307   -1.84934800126646
H         0.61657068130904    2.58798946869490   -2.91966740157463
C         0.94091667015209    1.64937126556182   -1.02104844395219
H         1.11761620670494    0.67203255215161   -1.44607796776466
C         0.99575158047873    1.82819924991487    0.34722128358359
H         1.21980266559598    0.99944337335942    1.00428673580264
C        -0.31771156543980    1.98590844400213    3.22778240844133
C        -1.53480827547852    1.85250363177832    2.56545947080813
H        -1.73406912273703    2.44206767571077    1.68162900815130
C        -2.48009368425137    0.95537006992791    3.02632531737828
H        -3.42253172873964    0.85459567174244    2.50730415581190
C        -2.22231940296791    0.18402282670772    4.14870171604225
H        -2.96436545519139   -0.51568348738060    4.50451488023671
C        -1.00968850398750    0.30366455076465    4.80631452526528
H        -0.79896927049841   -0.30547330506207    5.67347998518492
C        -0.06147370031059    1.19966580732437    4.34668391900931
H         0.90271856655864    1.27150993514148    4.83899779866471
C         3.42111786825982    5.58257300084569    1.77097815993731
H         3.17500562257588    6.30363788194136    2.54705296402165
H         2.52011067888366    5.35706477149860    1.20417566567200
H         4.17782918553038    5.99849834696366    1.10645724536005
C         5.69022412312243    4.63284294977224    3.11626324364252
H         5.56366281870348    5.32140421101232    3.95001504762870
H         6.20867373061750    5.13562467194454    2.30012297675386
H         6.27784960885289    3.78049386712984    3.45264537411567
C         4.51525889589158    3.06504562585450    1.09280168091768
H         5.05448490665112    2.18217695598122    1.42770981039447
H         5.14418938931715    3.65267911017459    0.42516870718785
H         3.61584197620536    2.74667588288607    0.56942119474385

