54
CSD_code = JASGEQ | q = 0 | S = 0 | Stoichiometry = C23H24AsCoN2O3 | MND = 4
As        1.22944935482088    2.37523497292800    3.97141216630572
Co        1.36387642227770    4.58801847730097    4.07598871049084
N         0.07420120682342    1.37151344670499    3.01744627439626
N         0.92319345629263    1.20952752455908    5.31106916875786
C         0.04804595407672    0.20815419813627    4.97524178205696
H        -0.18273110430799   -0.56486570115843    5.68792945039541
C        -0.41888242327851    0.29736533879766    3.71379365373512
H        -1.09147926999587   -0.39170152002597    3.23275619769758
C        -0.38664654021902    1.70207820830794    1.72473323491317
C        -1.72082290449497    2.08060548297866    1.54496769011021
C        -2.15147783903077    2.40938041630729    0.27008280314008
H        -3.17894380154421    2.71082081014343    0.12571750440856
C        -1.29058173115838    2.38627311971949   -0.81827586154906
C         0.03423508794558    2.03457119427215   -0.60912494547340
H         0.72090433293586    2.03132950144944   -1.44352934983438
C         0.50568398589856    1.69521859627402    0.64989942034938
C        -2.65297274586691    2.18522800915904    2.71493591921369
H        -3.01788711690238    1.20510291197267    3.02272633756111
H        -3.51065878346498    2.80093765694402    2.45690294422029
H        -2.14408531464284    2.64060699784212    3.56762938540276
C        -1.78987976616102    2.73424672764769   -2.18672793796381
H        -0.96735106523357    3.00430094036438   -2.84375070289840
H        -2.30936717357541    1.88048326771433   -2.62303563227482
H        -2.49119822265110    3.56411393756640   -2.13961890459070
C         1.94975252524820    1.35001140203918    0.85803482251975
H         2.42792574811136    1.12111746817946   -0.09094483355989
H         2.47512465321585    2.19989177785065    1.31129914445872
H         2.05890262006319    0.49071876680775    1.52477845334691
C         1.42776274650028    1.35709165271420    6.62164482347155
C         2.79933977224081    1.23223467522804    6.85208667211147
C         3.27408887511014    1.39046600548375    8.14561400750639
H         4.33484432323396    1.29585492830313    8.32897647504680
C         2.42206719591133    1.67454773540655    9.20144456391086
C         1.06563901119529    1.81852913015690    8.94188057897787
H         0.39651102516146    2.06908158174169    9.75246263046651
C         0.55118027205724    1.67331086472207    7.66448772409994
C         3.73985160177439    0.95283189596906    5.71844602222701
H         4.70682642789244    0.62930525486167    6.09508112463529
H         3.88944565698374    1.86287967415197    5.12414715456728
H         3.34157942409681    0.17921495885132    5.05703585246582
C         2.94524028401824    1.85886495295531   10.59262525485356
H         3.98498943359172    1.55078912506528   10.66284978604356
H         2.35732659333350    1.28100123181735   11.30342547002912
H         2.87699217880893    2.90795036838294   10.87874571626884
C        -0.90565092500355    1.90466062403641    7.39493541589724
H        -1.03340900175811    2.49947260074681    6.48713225090225
H        -1.36062362528975    2.43985519442597    8.22427713650293
H        -1.44069739792327    0.96420456634504    7.26097513890840
C         0.14070875364015    4.93442590697788    2.83710470989496
O        -0.62320274752326    5.22441897383616    2.02455912766997
C         2.72429515376484    5.64910325394724    3.61615903454065
O         3.48931383067931    6.46881022775707    3.36975688244683
C         1.31178737004902    4.72591542186234    5.84581237369435
O         1.31106422226756    4.88089526346486    6.98779717752021

