29
CSD_code = JASKOD | q = 0 | S = 0 | Stoichiometry = C6H9F6NO4P2W | MND = 6
C         5.68544526492095    7.05238901626693    3.67279012756670
C         5.67974714340618    9.29263114168248    5.42401405876429
C         3.78925238730618    5.72555537075208    5.32128753406297
C         3.48349260640513    6.48739521830911    8.68638816639663
C         2.07811883219570    8.77533797102848    7.74800343655755
C         4.72984344979553    9.02214272690872    8.74606513646228
F         2.76852109027637    8.58366207069558    4.89751859160561
F         3.09731239464062    7.14368870278429    3.16945461061156
F         4.17812953277075    9.15543846363516    3.20836220382234
F         1.08464510096690    8.21452170650964    3.36359191383005
F         2.17146408134137   10.23757530738713    3.40225727737001
F         2.52669690795352    8.77675754083704    1.62026597783543
O         6.17515520380547    6.81682236305407    2.67943621800738
O         6.13431985183998   10.33035541900901    5.35220655838099
O         3.19377784528916    4.76749828522546    5.19294180316346
O         7.06638417662450    6.22473306938963    6.93325218674305
N         6.19057485807240    6.70824786167595    6.30865243984835
P         3.71536323768021    7.97253873990447    7.63985315585263
P         2.58441850757588    8.71618879883208    3.19195716121495
W         4.82016532637715    7.46124834394802    5.45271914783434
H         2.76586522784360    5.81772133171359    8.21458032391124
H         3.11984121335215    6.76533852407908    9.67537127547405
H         2.12330668122783    9.75387190303861    7.27143319201756
H         1.77991374078814    8.88476822186515    8.79084516006376
H         4.26436425094194    9.10983197147364    9.72754557303176
H         4.43627400093919    5.96717392624915    8.78207111676524
H         1.34403422350564    8.17265155548359    7.21438031010242
H         5.71872417020728    8.57641162671936    8.85071688984845
H         4.83784869194924   10.01400282154702    8.30943845285294

