70
CSD_code = JASPEZ | q = 0 | S = 0 | Stoichiometry = C31H30N3OP2RhS2 | MND = 4
Rh        5.72159771856785   11.85343950385931    4.42503699305685
S         7.45284434854589   11.77534840790753    2.75724825617608
P         7.33060141236543   14.36123495328618    4.03355347821110
O         5.28279957081125    8.92622168431250    4.13927692806805
N         5.88946604070528   13.90284295190950    4.62009656220657
N         8.34160133333583   14.09253689630769    1.58754050428943
C         5.46519031382440   10.05110068220986    4.25867453965828
C         7.42037137743601   16.15885983357640    3.89924912117406
C         7.55857191159313   16.81227466256911    2.68259484406682
H         7.68935377579607   16.22567183138726    1.78516800904400
C         7.55703819816653   18.19614560858810    2.65678871942906
H         7.66999205341818   18.71491433473195    1.71639160329861
C         7.41150800889361   18.91594820839068    3.83131941006043
H         7.41041981369183   19.99552420763941    3.80426402954782
C         7.26997036751069   18.25844748911708    5.04400174182020
H         7.15866362978513   18.82356830867634    5.95730021221346
C         7.27252608135034   16.87790791329463    5.08151180282839
H         7.16323493080259   16.34467229948204    6.01737707394933
C         8.53199073138885   13.83651866576213    5.26934967149291
C         9.78317568731439   14.44681135507520    5.25221999514875
H         9.97632212571316   15.24062410984378    4.54190136865785
C        10.75929708428741   14.02468898214701    6.13487121601348
H        11.73229854173338   14.49310974820812    6.12675828235339
C        10.48999312109257   12.99458297933607    7.02380255416478
H        11.25631096966624   12.66399261809589    7.70911126287845
C         9.24713690767180   12.38122957871247    7.03099362381575
H         9.04411984326703   11.57327519297403    7.71751306220890
C         8.26266160886890   12.79680638247891    6.15228877040717
H         7.28262089969907   12.29819474823944    6.14431148109267
C         7.77525791104399   13.46124772395142    2.53328985511106
C         8.83504785141343   13.37285258048055    0.44453567120356
H         8.19604668353336   12.50740507330356    0.22276452623260
H         8.81918200526759   14.06832678352869   -0.39993231772982
C        10.26206401032444   12.88813043541718    0.69478288431990
H        10.64568414586933   12.39320277853936   -0.19325556082057
H        10.27004072338853   12.18377875570806    1.52344145911119
H        10.90586783935704   13.72927667913446    0.94192750865347
S         4.07960006752731   11.99453486573594    6.12339555415013
P         4.34370969496069   14.19385576680620    4.19866376524820
N         2.29211867847028   14.05888277579312    5.78147291997341
C         4.10976382891430   15.98826127540380    4.19984066925499
C         3.98594920478924   16.64706593661847    5.41618170066640
H         3.94617611043168   16.06732811888377    6.32717321571061
C         3.89171333677008   18.02584402507252    5.44099886619206
H         3.78025480012966   18.54248404829047    6.38279248833906
C         3.93972665127164   18.74442906976592    4.25700040048753
H         3.86505434881681   19.82157235872632    4.27776589087258
C         4.08361789078422   18.08769655428612    3.04564458517713
H         4.12732866238251   18.65160154929302    2.12563614629284
C         4.16934873268416   16.70804532565529    3.01341219204283
H         4.27842909330505   16.18341828146819    2.07258519144458
C         3.59285218740205   13.62762256749142    2.64797725462496
C         2.24993506935470   13.98592872422779    2.53018832719802
H         1.79595050215996   14.57699288222708    3.31553702526347
C         1.52465610536022   13.56361832462691    1.43374658529349
H         0.48248895245202   13.83151162584915    1.34127626805996
C         2.13420911828387   12.78929823849406    0.45660976825349
H         1.56435175610964   12.45671615306209   -0.39826325847869
C         3.46706572925502   12.43386009914721    0.57782576819922
H         3.93861717875498   11.82631848201440   -0.17979863152401
C         4.20319337540381   12.84560682610441    1.67659696987340
H         5.24253727381837   12.55477776048765    1.76789488112945
C         3.37868775242585   13.45446538661125    5.52369828577084
C         1.35730598073541   13.53631833106025    6.73811571419569
H         1.66878372861422   12.54879577578407    7.10457560534840
H         1.33149750613797   14.23125075648087    7.58519973782685
C        -0.02711057759695   13.46014598104177    6.10191012603346
H        -0.75577130428196   13.12476558197368    6.83512312131484
H        -0.01575355121664   12.75978143612089    5.26971746913829
H        -0.31935746190036   14.43919016720421    5.72983625324876

