35
CSD_code = JASRIF | q = 0 | S = 0 | Stoichiometry = C12H16FeNO4P | MND = 5
Fe        5.09867572575737    1.59436598042235    3.85445884403620
P         3.45720595826016    0.35757242943933    3.09868534578849
O         3.14198813564801    3.30069701763661    5.22430765935373
O         6.29581927326218   -0.73004534271249    5.19751939311039
O         6.06122971299080    2.17816507324055    1.13870375296503
O         7.17782263984090    3.32272705600343    4.90385317083662
N         2.01810278598922    0.99018370221644    2.54662388168030
C         0.75255734073668    0.48096777888016    3.05016518975810
C         0.60975645740533   -1.02053263609521    2.80640116979958
C         1.55999880473091   -1.80213375696438    3.70898017974630
C         2.99621071336719   -1.33370256234241    3.61665655728643
C         3.69722755107702   -1.26115706723096    2.25475179784794
C         2.04758996091415    2.03919612774203    1.53499183114201
C         1.54746619126537    1.52580378110284    0.18522138498694
C         1.28603914768168    3.28778001144072    1.97623625490571
C         3.90450469771167    2.62487520705102    4.69202028824803
C         5.81681461184403    0.17026126025928    4.66905577094894
C         5.66112243157800    1.94147542613081    2.18936138274564
C         6.35916007116235    2.63409547355901    4.48904956362121
H        -0.05550608666895    1.01317897152971    2.54840302365349
H         0.67050705141234    0.67704401687465    4.12663298237938
H         0.81703124613685   -1.23336094364630    1.75674488983771
H        -0.41630301424434   -1.32711038487725    3.01674962174706
H         1.52187200484718   -2.86491853117533    3.45132291967667
H         1.22643426680986   -1.70191057794585    4.74521642980772
H         3.62089488284008   -1.74206172561954    4.40919151503673
H         4.69160416615482   -1.68597230113613    2.19694358768402
H         3.08723506584037   -1.47326093295072    1.38597382682174
H         3.11025697634254    2.30669139957981    1.43174721787136
H         2.14594627442340    0.67632021502690   -0.13669451715833
H         0.50610794804006    1.21762147209373    0.24828733438045
H         1.62964258071272    2.30922671986288   -0.56340020973223
H         1.50573918576132    4.10819835113812    1.29820352093555
H         1.59058166108835    3.57705235074634    2.97870663407796
H         0.21106357928230    3.12366694071800    1.97192780417268

