51
CSD_code = JASTOP | q = 0 | S = 0 | Stoichiometry = C25H18N2O3PReS | MND = 6
Re        7.34761396074990    0.85460639395662    4.13821818607790
S         6.62274559485056    2.76113138712162    5.68586471896971
P         6.75230491009142    2.55448026861915    2.47328375151157
O        10.39817610099199    1.27254589925336    3.79556273199676
O         7.80743997844913   -0.81638366499400    6.69865663813531
O         7.16493500982773   -1.51741753882559    2.15277409228852
N         5.25295384091991    0.86458294354566    4.63392397202421
C         7.66153207001824   -0.24261228596919    5.72400885489689
C         9.26618366712829    1.11407373191344    3.89936433974667
N         3.99982709151246    2.42577468279498    5.91884938970668
C         7.27453106828405   -0.64336023670049    2.89103912705097
C         2.93208843029075    0.55108130929648    4.92487316442360
H         2.03966059475595   -0.02343065772889    4.74716253665678
C         8.64305618666087    4.36629487222499    3.46612131106750
H         8.90492924136882    3.59181302703355    4.17453549790300
C         4.15522062580211    0.16101090120044    4.40731235359211
H         4.26585054370019   -0.73071208015795    3.80096491902092
C         7.62513725468050    4.15070745718429    2.54648755670131
C         7.04204188677102    2.12395242778838    0.72308746921523
C         5.14179552394260    1.97599516730357    5.41024228892039
C         5.00140800797135    3.02898732740721    2.50549071140241
C         4.56836365856291    4.17147033754181    3.16986705354515
H         5.28952322081924    4.84441688375243    3.61346682401909
C         2.91634875847289    1.72440015158156    5.67602495832926
H         2.00122425466183    2.11413304631721    6.10252702534683
C         6.23209042939982    2.56104375141447   -0.31936841861909
H         5.34051251649779    3.13896652097989   -0.11668237422003
C         4.06846743500086    2.13776186071629    1.97718261341196
H         4.41438803885796    1.23350380349360    1.49005183033852
C         7.94414673670747    6.36784228728208    1.67992895629375
H         7.67064227145083    7.14851223370664    0.98506522390446
C         7.28055201159408    5.15713303931128    1.64671234565451
H         6.49128510447161    4.99171604750623    0.92631121465904
C         8.17733610378654    1.36957461852356    0.44088843383950
H         8.79942115358976    1.02500901384207    1.25948997190086
C         2.71788052188676    2.40958644487692    2.07977803653929
H         1.99724913154439    1.72027188177166    1.66399107096551
C         8.49768923290615    1.05456016698468   -0.86613404597546
H         9.37803275626970    0.46628939577623   -1.07652963585632
C         3.21384592591633    4.43332688019120    3.27471177909787
H         2.88007068296995    5.31818438184495    3.79541695905598
C         7.68568462197215    1.48866294666176   -1.90151882852893
H         7.93092515190504    1.23946134379550   -2.92310750841641
C         2.29016308413952    3.55811152903153    2.72827139383256
H         1.23374721473853    3.76468701523503    2.81532318761858
C         9.30634438147700    5.58069134437773    3.49225017581042
H        10.09383934120015    5.74391753305755    4.21251872405860
C         8.95784007700795    6.58131748892304    2.60190289251174
H         9.47318488951818    7.53006732755049    2.62491185305843
C         6.55489663785312    2.23897129557911   -1.62558548449714
H         5.91877306469901    2.57598809848533   -2.43118984047258

