82
CSD_code = JASYEI | q = 0 | S = 0 | Stoichiometry = C34H41ClN4SiTi | MND = 5
Ti        4.12954317459951    0.14410249258136    3.40755182843783
Cl        3.68382620045284    1.72232461750932    1.86318765606208
Si        3.29872158282454   -2.90211654795125    2.50556216261596
N         4.68859061423300   -0.38384779276507    5.11854691892496
N         3.87070277381029   -1.32078388041364    2.55037638539650
N         6.27528949124349    0.28150736713914    3.25311619095169
N         2.39378388278728    0.56638991031232    4.65214998456625
C         5.98595150610292   -0.53116418278381    5.47322767143439
C         6.07118389802712   -0.58457028584172    6.84807427171749
H         6.95698521900277   -0.70107875830343    7.44368838262130
C         4.74707655267930   -0.45846161639525    7.33899065765439
H         4.45317468757252   -0.46474948115820    8.37143725800808
C         3.92957321152029   -0.33415940995995    6.23622410230943
C         6.89336522878772   -0.58936345816375    4.27994219588683
H         6.90656191558700   -1.61286073611774    3.88015647548845
H         7.91988111639828   -0.29184156812319    4.52490715539077
C         4.59084539618257   -4.12176708024631    1.82330845333993
C         4.79382970654122   -5.37903787911007    2.37834847752403
H         4.19671454991873   -5.68514173425608    3.22638077940238
C         5.74817416615916   -6.24115317310525    1.86671788207832
H         5.88976018974244   -7.21731149190425    2.31022036632925
C         6.52319217959477   -5.85473308326328    0.78644327430943
H         7.26910586088133   -6.52643273943991    0.38492703419378
C         6.33658748910995   -4.60348015748817    0.22236421681818
H         6.93851275789972   -4.29743400641114   -0.62267648742815
C         5.37767303535936   -3.75068603550534    0.73872403797872
H         5.22343270887424   -2.77499842431543    0.29728290331722
C         1.72997403009049   -3.01200453028415    1.43191411602814
C         1.24818593123845   -1.85439791776311    0.83220096269823
H         1.80000298282216   -0.93233462549830    0.98217687943312
C         0.10538321010813   -1.87320224342473    0.05322767496337
H        -0.25515026496772   -0.96328311823819   -0.40694302110808
C        -0.57737625455519   -3.06294766953286   -0.14048278804375
H        -1.47185240401044   -3.08378587545702   -0.74738544914556
C        -0.10569019264050   -4.22752459783775    0.44175025386216
H        -0.63269612422597   -5.15921465572384    0.28704333069556
C         1.03906744787921   -4.19850172520015    1.21914298899927
H         1.40459594768409   -5.11211372978813    1.66782814489330
C         2.85750400668044   -3.41561701332207    4.28878667633895
C         1.55193941143089   -3.62370781026684    4.71797963617517
H         0.74450948391412   -3.58169599473148    3.99813572082895
C         1.26786289886240   -3.89254090261785    6.04707924107171
H         0.24546170261874   -4.05804929225579    6.35984257486401
C         2.29342036185505   -3.94778092869080    6.97603067562660
H         2.07445217088949   -4.15461852928764    8.01411992346033
C         3.60069557390112   -3.74026244299752    6.56659119549514
H         4.40525701727671   -3.77989397859813    7.28683662141927
C         3.87342507466703   -3.47726102482767    5.23647714471195
H         4.89455382129743   -3.31744081378149    4.91783123991120
C         2.46966963593391   -0.18877657347973    5.92621773222176
H         1.92321774721057    0.30198328595589    6.74002742330555
H         2.03406564604821   -1.18225429168813    5.76357988611081
C         6.67194258042186   -0.06548804522230    1.88213574750288
H         6.45916770258041   -1.13064127137465    1.73148234719029
H         6.03534599454383    0.50824079025843    1.19427878770204
C         8.13894937532681    0.25782338395886    1.58925750175373
H         8.36194767193925   -0.00335762504488    0.55420002768110
H         8.79200801962927   -0.33725099990519    2.23097239572725
C         8.38943237315029    1.74497502942415    1.82516671793546
H         9.43731271163516    1.99029287474423    1.64342110273004
H         7.78144945353940    2.32810416137272    1.12923428538476
C         8.00588262380156    2.10490513276869    3.25783935192117
H         8.10483086036945    3.18002101308043    3.41798599206773
H         8.68278313512884    1.60747891339075    3.95561664075169
C         6.55200897222090    1.69965827704482    3.53097430693907
H         6.30388963604903    1.89920603840153    4.58365471186355
H         5.90236079894441    2.30909533122593    2.88738516451204
C         1.20069104625463    0.24724211730679    3.85790398215769
H         1.17528739506281   -0.83748449873295    3.70331962272389
H         1.31193761759771    0.73006870075365    2.87702743970306
C        -0.09434236670283    0.74367455142845    4.50467692785539
H        -0.93546415383076    0.48644270403982    3.85992503987800
H        -0.24688230689900    0.25048210294157    5.46697890616146
C        -0.01578851594033    2.25575381020738    4.69794483974083
H         0.07210599461185    2.73990805565081    3.72225316467523
H        -0.92241906318513    2.62851194018183    5.17789820366642
C         1.20625297502041    2.59714282783535    5.54625970312321
H         1.32225577359754    3.67961995639215    5.62517151017658
H         1.06865816088359    2.20941321087943    6.55788838931602
C         2.47327266632934    2.01483866303458    4.90616126589701
H         2.63259650211913    2.52741081486980    3.94802300968324
H         3.33790840783833    2.20188817392814    5.55937389344932

