113
CSD_code = JASZAF | q = 0 | S = 0 | Stoichiometry = C44H60B2Cl2O4Ti | MND = 6
Ti        4.23531067232213   14.90201819088360    5.46792958116081
Cl        3.62891361251899   13.78926957141880    7.37217273238753
Cl        5.68218497243038   15.71954132937745    3.88331695881639
B         2.84777849176590   17.55510503489690    5.89855891599930
B         2.01453031870580   13.60187793992506    3.91259484130361
O         3.47221180808620   16.40077604425849    5.77586418645348
O         3.10233547486172   14.11152745610633    4.45331822343245
O         5.51915182260821   13.10409375843380    5.26774876398549
O         5.94026459288958   15.56707095548004    6.77967194513856
C         1.51848838960623   17.83027958019126    5.04991203186215
C         1.51263040510002   17.62699790641541    3.66124604820102
C         0.35322864380233   17.83036688817145    2.92786489882298
H         0.37129164981561   17.66376412233911    1.85987390901623
C        -0.82963557784397   18.22179382390551    3.53595571246522
C        -0.82436100699824   18.41936850342509    4.90787157848353
H        -1.73743999105942   18.72369788561201    5.40177115111150
C         0.32472912087973   18.23296172591890    5.66309609775722
C         2.74871157831893   17.18096065917993    2.93900045786264
H         2.93699336212393   16.12529658814466    3.15204947534989
H         3.62375526824451   17.74660077620917    3.25686359809839
H         2.62876846432978   17.28979979147652    1.86284166773072
C        -2.07140363566713   18.43830286149998    2.72487030559012
H        -2.07543779880749   19.44655359359977    2.30889465991522
H        -2.96234105793128   18.32181298841822    3.33771863383009
H        -2.11562528540443   17.73437734554658    1.89679974988894
C         0.25844014162580   18.43578474654640    7.14856890212373
H        -0.72055273990750   18.80651581599778    7.44413001194345
H         1.01635402649437   19.14647818148035    7.47119427196195
H         0.44210884858445   17.49298391180044    7.66056844654734
C         3.47126952935919   18.65644945705904    6.88506335857340
C         3.66080449701124   18.38767773859154    8.24687654533273
C         4.24822164435747   19.33809150301601    9.07446195809349
H         4.37332688409478   19.11356214603860   10.12590213645190
C         4.67179445268387   20.56201048616524    8.58610307046061
C         4.49244040439702   20.82283264363299    7.23475301707773
H         4.82060527689275   21.77230658902210    6.83436118882351
C         3.90199497857436   19.89661862473586    6.38960673545078
C         3.20375936673121   17.09650860115700    8.86223442339456
H         3.82341614372313   16.83673855659775    9.71951565067921
H         3.22915460964718   16.27971876691789    8.14227512268461
H         2.17864488542944   17.19882135513580    9.22046528885181
C         5.31686103441439   21.58023104319168    9.47751473264968
H         6.35274525004051   21.74205948065843    9.17948402062817
H         5.30213235194409   21.25564808083509   10.51510968286128
H         4.79752637107208   22.53447368407153    9.40307467398408
C         3.76565675841570   20.22312991396949    4.93147992346535
H         4.00445075568557   21.26775132874800    4.74549100818221
H         2.75415800699022   20.02233993377160    4.58567991692359
H         4.44813443353421   19.60724903332044    4.34518928906397
C         1.66256242048859   13.91715375655354    2.38685130983181
C         2.65012614581753   13.80381847609845    1.39795224346612
C         2.36684721291214   14.13883237792338    0.08185025406749
H         3.14229497734383   14.04390191675521   -0.66634203280119
C         1.11532073018367   14.60161099745135   -0.29176153708885
C         0.13829789669451   14.70767659537036    0.68660918517664
H        -0.84598951556215   15.06247571086549    0.41114575819926
C         0.39120251542768   14.37068473968894    2.00780767343668
C         4.03181318419937   13.32396600065977    1.73829381675261
H         4.53369784974196   12.93789143489978    0.85224863599387
H         3.99436148583322   12.54475508452052    2.49767724956529
H         4.62532720175790   14.15246001275933    2.13262049595164
C         0.81720726369795   14.95218496164780   -1.71887585565971
H         1.71892239585952   15.27176202668579   -2.23657320078808
H         0.07579153309517   15.74626023718385   -1.77694726435228
H         0.41832895661563   14.08167981356995   -2.24146384555191
C        -0.70600132292567   14.52325534275904    3.01871768411003
H        -0.43511847219908   15.27640255818728    3.75544544976791
H        -0.87621109876018   13.58556401534416    3.54315385631554
H        -1.63163421348424   14.83015561776730    2.53699238355679
C         1.10798389515476   12.64552512740132    4.82229439329377
C         0.95129650782957   11.28969419833453    4.50324336682444
C         0.22641126715440   10.45219278779462    5.33724119437759
H         0.11980801097197    9.40781041459510    5.07562597713270
C        -0.36528464076983   10.92557457886138    6.49881613114292
C        -0.22176032826542   12.26873114498105    6.80441231882361
H        -0.68159364971270   12.66137574322275    7.70089129920749
C         0.50472528144762   13.12722599353327    5.98966775850805
C         1.57363271854724   10.71956043493567    3.25927619006890
H         2.65364429664042   10.62682023562428    3.37874912253433
H         1.38635514489155   11.36854701696281    2.40659639322581
H         1.17246874813778    9.73076166504664    3.04795132334073
C        -1.12559405208909   10.00846845765655    7.40938734370402
H        -1.47026178010510    9.12625334238969    6.87474337782390
H        -1.98433695403759   10.51798702504491    7.84145986331143
H        -0.48353881519456    9.68132991379233    8.22792181570397
C         0.56964658929635   14.57773338017600    6.37890650565569
H        -0.41501467172472   15.03725369852691    6.27330149502452
H         1.27890396564721   15.13025961334353    5.76046646625065
H         0.87157254707105   14.66403357631768    7.42282583486475
C         5.00105034979082   11.77937398388884    5.41987831532589
H         3.92615253102130   11.81380490683575    5.21858364959422
H         5.15107008169706   11.45482374514566    6.45956942921298
C         5.78629998597300   10.88215299626959    4.44277490643575
H         5.15327767148630   10.51075445980487    3.63895598463298
H         6.20381751112512   10.02344405176215    4.96684675678076
C         6.89101194893664   11.80341077006728    3.90644016991732
H         7.85718925767240   11.30943286956457    3.83758476210080
H         6.62281699451911   12.19807915355810    2.92673254165407
C         6.89199016051809   12.94173767897350    4.92476679316247
H         7.46525094204401   12.65840261351767    5.82225277036143
H         7.25692922528058   13.88839277610863    4.52082133546516
C         6.38150487527741   15.01864144356868    8.03224493472757
H         6.63998015588981   13.96703107784360    7.87657714199380
H         5.55768692646447   15.07146855383820    8.75407473660032
C         7.55948704941727   15.87572708033546    8.48119079303285
H         8.48030395176866   15.55192875612111    7.99314566184229
H         7.69919264659693   15.84580986459150    9.55892127415630
C         7.13904015113183   17.24690475427295    7.96292954809394
H         6.39586182298321   17.69638732311480    8.62197791589990
H         7.97078712184339   17.93691423854414    7.84426914853124
C         6.50496508235481   16.88426897533293    6.62473316360528
H         5.70911413325785   17.57728829902458    6.33234620486703
H         7.25812598775387   16.83989265799217    5.82639213074528

