59
CSD_code = JATBEL | q = 0 | S = 0 | Stoichiometry = C25H28CrO3Si2 | MND = 9
Cr        1.63341231239404    7.08290910256034    9.29427831705302
Si        1.79004134693594   10.54107083539758   12.32534189319162
Si        3.47257586343609    3.17328089794571    8.35587584024820
O        -0.43423394505604    5.47692078040817    7.88854182734158
O         1.80264260893530    8.07781687449159    6.49141410554826
O        -0.80173547034281    8.79279251133147    9.26911252317268
C         2.83823506218776    8.95739910869360   12.42913616882812
C         3.72339746791077    8.63000416949848   13.38024618418428
C         4.42389060702484    7.33042187131478   13.23185056731200
C         3.80130755218655    6.14848154827351   13.62776577231595
C         4.07984353880927    4.95951733867828   12.97928626995304
C         4.98501967444129    4.92841497885273   11.92026870809040
C         5.80552296407125    6.03999538324652   11.73819521318255
C         5.52830550948574    7.22829854619227   12.38789653760637
C         4.81702696700664    3.93936122953613   10.82716574560668
C         3.93322240182535    4.23603136372818    9.86456118434023
C         3.23779116110696    5.53429598118324   10.03161908788523
C         3.81957442933036    6.72591884787238    9.58399868565980
C         3.55520212321096    7.94138537749455   10.26161792462760
C         2.68233136211744    7.95548008707198   11.34853483529160
C         1.81085826181934    6.85623726391573   11.50373389021792
C         2.09764856759479    5.64001150116780   10.85543839108119
C         0.38791765385601    6.06256589842877    8.46092983744016
C         1.79740726130255    7.71212761495703    7.58935720692464
C         0.17477248246832    8.17039236230310    9.31772218695985
C         1.94394062831181   11.18807178974773   10.54050134184577
C         2.45429614272572   11.80736999660979   13.58481712240008
C        -0.01380015473355   10.06483153071904   12.71330529492077
C         4.77596761372703    1.79812582256849    8.14968579606045
C         1.74300358293603    2.43931666242649    8.67678585670246
C         3.42774250134889    4.33012448762680    6.84471358155609
H         3.92677601327464    9.28079701193451   14.21688152691178
H         3.00999882090997    6.18426630882376   14.36324541245656
H         3.50465256252786    4.07481105236091   13.21366218412936
H         6.58932531160280    6.00666364620720   10.99461895698272
H         6.09770886417915    8.11508819792335   12.14768945779544
H         5.38662698552205    3.02264571339769   10.81301625382066
H         4.66956434443179    6.67922111266334    8.91142992290660
H         4.20014942946574    8.79434329592356   10.08558637987848
H         1.09038617568817    6.87093438453576   12.31373876022242
H         1.60088017964502    4.73261507405043   11.18230655383991
H         1.62219177271181   10.43445191829364    9.82436015254745
H         2.96473780577929   11.46732171335782   10.29483748531172
H         1.32271896598155   12.06536798996768   10.38992862595098
H         1.91811643804133   12.74682083038278   13.49774425165528
H         3.50786693534320   12.01692219853031   13.42835197950932
H         2.33336856319059   11.45820611840565   14.60541678874740
H        -0.64676899351162   10.94580113458994   12.75437536259854
H        -0.10267618439591    9.55376833472061   13.66809028304537
H        -0.41737453874391    9.41207451068219   11.94477883161692
H         4.57971748100017    1.22108976687275    7.25192595179343
H         4.76556455984715    1.10801786298879    8.98744817835692
H         5.77981388315542    2.20255212986283    8.06535003631210
H         1.46404346407067    1.74791635736493    7.88770654417501
H         0.98863803943856    3.22037700030338    8.70392972014043
H         1.69853704630896    1.89649632123152    9.61695592977125
H         3.14059666611495    3.78895092275950    5.94873209294124
H         4.39356723184847    4.78799974114439    6.65047783484821
H         2.70244409819333    5.12900758647678    6.98981664418148

