43
CSD_code = JATBAH | q = 0 | S = 0 | Stoichiometry = C21H16CrO5 | MND = 9
Cr        6.01923717729787    1.45126539251961   10.68673534035602
O         8.17955879098821   -1.43666256324405   15.02901359842720
O         3.34606532803867   -2.86183674891208   12.76324566249614
O         7.02454488948252    3.14413422077362   11.29493690351047
O         3.63506589383743    2.78143837781859    9.51885408734623
O         6.59149456539057    1.39987940220907    7.77677504289321
C         8.29843511281101   -1.45713442347488   11.63320400688997
C         8.18976882099662   -2.49316017333893   12.46495660039693
C         6.98146979997850   -2.52497015677802   13.32537129776447
C         6.96134597695232   -1.75871721356444   14.49850310519581
C         5.74613503896295   -1.26249945881734   14.95017799783768
C         4.56410050207760   -1.54010089111293   14.27513939588184
C         4.56375656902127   -2.53354219978925   13.28693803539308
C         5.78223127758447   -3.00282212008315   12.81311779368027
C         3.45137516975204   -0.55970647117067   14.32121435283185
C         3.54912732960909    0.48552972575889   13.49986606573349
C         4.74240292230918    0.54827857406397   12.61928237358857
C         4.76405796159460   -0.17014766090834   11.39982581684520
C         6.00959547066564   -0.67186754629254   10.91334035708220
C         7.20203089214425   -0.45621677721230   11.64938652372953
C         7.18384214556389    0.58190912200168   12.57461787740991
C         5.94523704618310    1.08427082260996   13.06377404797437
C         8.21449156784246   -0.64883680543264   16.19217118686632
C         3.29439286992816   -3.82158321974573   11.73724587479385
C         7.29117888403802    3.08309583871414   10.16272701702507
C         4.57660107207334    2.33632862364354   10.01523663976790
C         6.39522469164226    1.40098377755570    8.91251728509128
H         9.14082148151558   -1.32989589801588   10.96898302218225
H         8.93914931907896   -3.26688365339957   12.52744601613891
H         5.71269473794261   -0.54023710182850   15.75112239710290
H         5.82209965731494   -3.64303856955130   11.94561693561470
H         2.60912182365276   -0.70240728283743   14.98020712784632
H         2.79463926832474    1.25624239354341   13.44513414319413
H         3.83951856199493   -0.60802287814531   11.03962215980380
H         5.99425375454904   -1.46877659869216   10.17577180857940
H         8.09214736055515    0.83609783769463   13.11129485472128
H         5.95683506592423    1.71053819382762   13.94857627052490
H         9.26502913892367   -0.58234519693384   16.47096858699496
H         7.65157606423221   -1.11071233721260   17.00933883483669
H         7.82629589520692    0.35964027623924   16.01135513310830
H         2.23639492224633   -3.96837061982603   11.52608110282576
H         3.79674230343558   -3.47120799865290   10.82906672468813
H         3.73581287833536   -4.77233001400066   12.05234059502814

