77
CSD_code = JATCAL | q = 0 | S = 0 | Stoichiometry = C26H35BBr3ClN6NiO4 | MND = 6
C         3.02506444884285    6.52469021252809    4.27463252216900
C         2.05371828607761    7.08613134893959    3.27474041348156
C         1.19304505210134    8.10635330010191    3.65938838407827
H         1.23448610349493    8.48220816000671    4.66986914213713
C         0.30157230713662    8.61944543479681    2.73500238867035
C         0.25969045464999    8.13251610405890    1.43709497537353
H        -0.44227243995387    8.54580751611600    0.72983955340559
C         1.12553017864398    7.11738470656223    1.06341497254230
H         1.09466333419677    6.73727499964462    0.05361086777131
C         2.02150668260626    6.59177461853242    1.97549249404215
H         2.70497831526334    5.80309667607485    1.70113325606306
C         6.37516805658872    3.89336750251380    7.90857284992851
H         5.48916326661642    4.46917839141284    7.66858946757651
H         7.03294673982697    4.47560344195831    8.55249195865814
H         6.08734262156353    2.99221848997019    8.45010446454237
C         7.07876360102598    3.52472395147936    6.65675136653234
C         8.33497328782054    2.91646958195723    6.55287502352583
C         8.57470967288755    2.72016204087870    5.20257722289078
C         9.76784653341397    2.12324397237988    4.55492718737135
H         9.49818323034951    1.22291507811270    4.00591745186949
H        10.50236204522994    1.86496077271984    5.31402382987080
H        10.21441783797729    2.82738645086306    3.85581846051356
C         2.33153248125606    2.77033171905968    3.88642123936848
H         2.48472197666858    3.29051794580387    4.82675646835580
H         1.82631066386461    1.82038998432836    4.05564766084778
H         1.70145713027328    3.38396596852803    3.24299292405806
C         3.64852323091727    2.54516560591928    3.24767023229241
C         3.94573867949924    1.70415558290108    2.16969581919000
C         5.30923637483512    1.80867747119887    1.94278760513031
C         6.12650809777958    1.12969189763101    0.90798787939556
H         6.57413326559513    1.86012626809634    0.23649596228950
H         5.49578838827135    0.46038629797577    0.32780862476711
H         6.92725184957114    0.55269007364792    1.36615591049745
C         5.89361464074987    7.92358029007762    2.62049953569666
H         5.36798315661398    8.23391112026596    1.71758310830185
H         6.58169866089673    8.72350199303918    2.89606026189824
H         5.16673706022785    7.77916999794777    3.41305680061460
C         6.63367662520022    6.66209017327862    2.36175293212053
C         7.57313060611433    6.43534559614880    1.34372674880395
C         7.97506616458605    5.11668270900617    1.46496523071441
C         8.95649367035613    4.36458215229500    0.64436917764491
H         9.74470602061281    3.95105087039681    1.27060561409053
H         9.40255773279087    5.03151925082613   -0.08953810109565
H         8.47360342715856    3.54137090932944    0.12060355286462
C         6.62563716407545    7.10148564367562    6.14093562541566
H         6.88793829702785    7.51658206990398    5.16097729709949
H         7.47135839672082    6.50474792286557    6.49688537928119
C         6.31615239574786    8.22695568997785    7.11929435943891
H         5.46218897715218    8.80308283795350    6.76800255680461
H         7.17192160069967    8.88972778128076    7.20989328206475
H         6.08080263860356    7.82132672588620    8.10046337179959
C         2.79827379832151    3.87667552001680    7.60148569229078
H         3.19266208343769    4.31350529931518    8.53103336501834
H         3.07045623935364    2.81839450036107    7.57366249541526
C         1.28372653645187    4.04311945342019    7.56897704900991
H         1.02321406664045    5.10011668901751    7.55906412736122
H         0.83971251946670    3.58376486882148    8.44760537421786
H         0.86478635505222    3.57638129160714    6.68074893925236
N         6.60392228997087    3.68624976298736    5.42577384396780
N         7.49868553008464    3.19331035545762    4.55128171041464
N         4.78341306399624    3.11352042444496    3.63846209852617
N         5.78426017450965    2.67214641700382    2.85656504684612
N         6.49317481141761    5.54435553129311    3.05652799069823
N         7.29511777223722    4.60990715086607    2.51246083554804
O         3.70176947010954    5.53892537624792    3.88198364257726
O         3.10392305688474    7.04771518552193    5.40602606298337
O         5.52463166384784    6.21910663630652    6.03716491810695
O         3.42119909841025    4.47268321847665    6.48233357224985
Cl       -0.77636339768974    9.88879519344756    3.20261715586026
Ni        5.13541747844789    4.63627481522228    4.75895420451293
Br        9.46530228854086    2.45765239290065    7.98868145750181
Br        2.71861518096532    0.63261583806986    1.22621881943754
Br        8.16648756549517    7.68954072217501    0.06416911172305
B         7.23285315590530    3.17129217450015    3.03633993328756
H         7.99581480390259    2.46913068710410    2.48103347190719
H         4.68728278603479    6.74350185407617    5.90841111983198
H         3.11243261813640    5.39539334050412    6.40949264867778

