63
CSD_code = JATFAM | q = 0 | S = 0 | Stoichiometry = C28H30Cl2NPTi | MND = 9
Ti       16.67329906466400   11.94350623541679    9.32826417839397
P        16.91860790233899   11.53947951441916    6.78513720137950
Cl       18.85331373331105   11.54088970171357    9.24583966602514
Cl       17.03321892322854   13.85811625967119   10.33239534445848
N        15.99341953191223   12.59552473670032    7.70339511439358
C        16.25360727849625   10.90599074714881   11.32156969542547
C        15.04240303248612   11.51184190297236   10.87060576639903
C        14.65997856678765   10.87768144311275    9.65379427369080
C        15.63391341030921    9.88003905802969    9.35959115678083
C        16.60602720193570    9.88879700569201   10.39972363928011
C        16.97574000658061   11.23975594392578   12.59311692592004
H        18.05607681593121   11.18063397709001   12.45049016488732
H        16.69591544472170   10.54169180267088   13.38597335598122
H        16.72857301516066   12.24924307493869   12.91931884511152
C        14.23288005942193   12.49828156519037   11.66110568580901
H        13.32338797192025   12.77177507136385   11.12955132988694
H        14.80510604527233   13.40486805315624   11.86881908644372
H        13.94741478495291   12.05520817925337   12.61744251597830
C        13.36152344554483   11.06893686119227    8.92447647927398
H        12.57479608707199   10.48672008372254    9.41122401888973
H        13.44327878915709   10.72830478878788    7.89338431654933
H        13.05453047449932   12.11421272055470    8.91415557252974
C        15.55188362560332    8.84741741679367    8.27512639127269
H        16.54744706615447    8.55586367470815    7.93959286918928
H        14.99170291213364    9.21269010810233    7.41438859578595
H        15.04767268888405    7.95372468172544    8.65213446186169
C        17.70688451293752    8.88389510744151   10.55527721694553
H        18.44475429801086    9.22306210586061   11.27905571139306
H        18.21568160820938    8.70778133424387    9.60742173222823
H        17.29255736413453    7.93443803140091   10.90322966660999
C        15.39408529334239   13.78723726508175    7.33593774432706
C        14.63121648446387   14.47297313460854    8.29224592507254
H        14.54651279765161   14.05873965182705    9.29083279685447
C        14.00990667617542   15.66389870388583    7.97494224010616
H        13.43290323081844   16.17912030382112    8.72924013425224
C        14.12084034173566   16.20013973982697    6.70165726149891
H        13.63543074638845   17.13276728767039    6.45805348582263
C        14.85969572030526   15.52474944558443    5.74504686525806
H        14.95198647564926   15.92791882575598    4.74696501663739
C        15.48643840383884   14.33302085042230    6.05058373863887
H        16.05421272370209   13.81288914193754    5.29133328952858
C        15.85367674922981   10.98900437753979    5.38890225885877
C        14.53367063161031   11.39044150506880    5.22014605749367
H        14.10448371064270   12.13020376270769    5.88070755001169
C        13.76821816427985   10.84883843523140    4.20223896640967
H        12.74644188765026   11.17466414376566    4.07102913145170
C        14.30489011382339    9.89315954895394    3.35565752637517
H        13.70510803234465    9.47649215182605    2.56017424217630
C        15.60726418965955    9.45846547330921    3.54358338337492
H        16.02164510076433    8.69553931385803    2.90056769865651
C        16.37067661290085    9.99162043032593    4.56476875548019
H        17.37546914232279    9.62958435342604    4.74165368115382
C        18.13299620630312   12.66108070583632    5.97290564438007
C        18.61097745669312   12.46757029284088    4.68175040854597
H        18.22571594696785   11.66218377137904    4.07356495915135
C        19.56842498766126   13.32036330020832    4.16084903445956
H        19.93016829997458   13.16525814818000    3.15455950649928
C        20.06161205202937   14.36565732215245    4.92262583682604
H        20.81067514467079   15.02720247712103    4.51335091679375
C        19.59037549741564   14.56150280270544    6.21094548231242
H        19.96992886259759   15.37661191605314    6.80921762841032
C        18.63458393808060   13.71338537615387    6.73792042197170
H        18.26977271663610   13.87574485387281    7.75014143261214

