115
CSD_code = JATHUK | q = 0 | S = 0 | Stoichiometry = C41H66N2O5Zr | MND = 6
Zr        9.02441234375019    7.04245660321603    5.87863338322851
O         8.20243110460927    7.73830207245720    4.22489830112588
N         7.18202313141531    9.40968830246249    6.25773721127552
C         7.10123880476687    8.13101852884148    6.65477317592330
O         8.92498340973306    6.05341998438127    7.59494703564223
N         7.10977924661552    8.12268428824256    7.99337575038989
C         7.24333034894338   10.36060458500871    7.38025365703104
H         6.34732377115346   10.99104589783787    7.39031234077810
H         8.12997780370373   10.98945289895876    7.27989206313796
O        10.37824334592996    6.02415511504755    4.99106089108474
C         7.29651894648245    9.44613743130594    8.59744914056500
H         8.26535309184331    9.47757613701221    9.10724144368043
H         6.50796620638564    9.66129761232360    9.32334749565076
O         9.79778499513955    8.67085466621624    6.57028884880433
C         7.09662791284262    6.96375725664259    8.80332656694113
O         7.42215649406562    5.31194785851791    5.39743323970154
C         8.04463273142477    5.93597183448107    8.56130390823485
C         7.99527296044816    4.80719141380130    9.42390216195161
C         7.05659196420876    4.76724421223603   10.44243480860846
H         7.04440080029087    3.90727731056829   11.08588142808746
C         6.13478133173008    5.78001303385613   10.67794968787774
C         6.17557957853818    6.87872889681992    9.83296382336775
H         5.47678740571969    7.69226776900249    9.96008846843718
C         8.99202765418311    3.66906564412164    9.22381196764569
C         8.83283464158204    3.10425662140247    7.80454426171544
H         9.58203085470840    2.33609946189239    7.61993501372064
H         8.95236502638677    3.89683468279814    7.06771572348564
H         7.84623656514216    2.65664537671490    7.69083094471407
C        10.41009127694390    4.22419496585644    9.41348030706099
H        11.15045245852115    3.44330348066184    9.24741294918538
H        10.52954415335127    4.60486482210975   10.42637424660964
H        10.58639402053047    5.03709853345959    8.71440025900358
C         8.80266921457074    2.51112368254720   10.21026593846365
H         9.53792423337488    1.73809691113266    9.99400181750975
H         7.81368857996267    2.06759537057384   10.11696769267891
H         8.95370488757161    2.83598012390571   11.23696400987965
C         5.10683816800720    5.72944738166668   11.79871619598278
C         5.21176531499943    4.45624230367715   12.64251246377483
H         4.45826126184681    4.47829092038425   13.42761980029853
H         6.18771505416491    4.38097240426730   13.11581354787385
H         5.03915609347509    3.56997123096834   12.03667098538438
C         5.31560308781931    6.93315257926637   12.72865069662770
H         4.60340132639533    6.90305996312090   13.55093575704014
H         5.18146271001897    7.87111300948873   12.19731733937485
H         6.32186355933288    6.91673734677498   13.14163371808478
C         3.69789654052741    5.78336179884884   11.19091997529849
H         2.94609838670814    5.74182075431281   11.97660780593645
H         3.54651687309082    4.93907527758431   10.52162043862139
H         3.54769886508643    6.69733116443132   10.62336103494746
C         7.41796292909885    9.86974368598569    4.94807078734306
C         8.00236323479084    9.01576519430404    3.97179462514218
C         8.31269614968188    9.58727462385164    2.71145548601335
C         8.00200326895673   10.91584005181081    2.46344625604385
H         8.23952385005355   11.32441977291543    1.49923618848569
C         7.39489762750994   11.73868474378637    3.40087199394453
C         7.12303888455147   11.19120077005271    4.64586041970368
H         6.65843739532884   11.80588210595225    5.40019836426452
C         8.97176054083437    8.72732145834379    1.63390755170847
C         9.32398595169829    9.51071488947475    0.36328253734893
H         9.81833789014466    8.84124771022791   -0.33864106161630
H        10.00536563494052   10.32993442385122    0.58041585201766
H         8.43435468817397    9.90352905743545   -0.12363725655438
C         8.00092024030126    7.60640235286890    1.23939686793391
H         8.44870180068926    6.96301930073003    0.48367335142944
H         7.08188757711064    8.02842887247857    0.83653048843321
H         7.76061641769572    7.01195589975574    2.11394189084952
C        10.27382506763783    8.12265398702736    2.17799531036341
H        10.71981543503155    7.46826227565067    1.42986043742765
H        10.08684673203795    7.54630086454709    3.08637332247818
H        10.98279205661002    8.91727378486655    2.40297035018181
C         7.02453597610827   13.18929445742746    3.12445186009147
C         7.75353546289508   14.10020886629672    4.12246445005700
H         7.52279793740138   15.14443898440702    3.91948951890126
H         8.82899666395921   13.96043317603956    4.03870281470926
H         7.46107322364101   13.88046647407404    5.14542089101018
C         5.50677121211554   13.35941321766564    3.28337325463452
H         5.21718572907022   14.38790575725464    3.07570920634461
H         5.18508460564756   13.11160648580717    4.29099750630310
H         4.98343273332721   12.70520428771359    2.58952097296165
C         7.40419695118907   13.63835457832998    1.71070783754596
H         7.11355351762749   14.67787929058416    1.56900067708852
H         6.89145193623296   13.04097561469225    0.96082000056847
H         8.47740250290830   13.56476061526842    1.55306264182156
C        10.67931125872617    4.70123542267499    4.71968284470965
H         9.79369923239977    4.05440351377907    4.91427576273856
C        11.07474057700988    4.53684948752353    3.23893754219800
H        11.26105757173234    3.49129397820541    3.00404792764660
H        11.97536499838624    5.11426700974341    3.04060490740270
H        10.28061777942495    4.91254172534401    2.59642719026749
C        11.82888596532743    4.19954400843205    5.61325066964863
H        12.06139173334656    3.16104502852453    5.38763766673507
H        11.54163998639345    4.27973487826462    6.65915891656646
H        12.71563323406390    4.80767499261176    5.44165785022006
C        11.16596592292340    8.79687732703295    6.73970345912155
H        11.36305477275659    9.74754225970089    7.28222563917949
C        11.87601038649007    8.84937847013654    5.37708455129581
H        12.94609491895670    9.01038763301135    5.49847582429752
H        11.45525218531099    9.66248874555853    4.78515550225195
H        11.69553241667942    7.90009736681596    4.86451221902867
C        11.71887754097386    7.62692213682900    7.57283292941049
H        12.78941268931827    7.73516372047236    7.74224004439078
H        11.51624067264979    6.70394769459756    7.01943303797139
H        11.20618504141093    7.58792044121872    8.53573157710739
C         6.19300580269882    5.03088540173645    6.06633276561883
H         5.52873925709219    5.90357723143466    5.97979219231774
H         6.40991472011180    4.84661679115012    7.11948549194205
C         5.58623051255752    3.80615309736632    5.35157896836350
H         5.70105784692777    2.90457667089488    5.95033258102971
H         4.52463492423178    3.95546842696995    5.16283891415926
C         6.39030040484186    3.71167049290640    4.04579566960230
H         5.75857407621578    3.58813596079821    3.16943789213602
H         7.09626629407918    2.88263998764000    4.08756685984880
C         7.14437806896014    5.04384044957113    4.02779751812241
H         8.09182061036147    5.01615462062244    3.48914470699520
H         6.50491823483269    5.84093787563376    3.62201526041204

