78
CSD_code = JATJUM | q = 0 | S = 0 | Stoichiometry = C34H35O5PPdS2 | MND = 4
Pd        8.10248404865629    4.84592301157349   10.07034272506370
S         7.86350112719360    7.44006962527308   10.53642637944049
S         7.83188066079961    2.08050865901403   10.70307358916565
P         9.89058303464721    5.47220482218367    8.89229402432598
O         9.27645241071490    7.53124676869687   10.16822267808449
O         7.60723816317763    6.94366828589613   11.88003068180717
O         7.17018644801918    2.36728854872104    9.44480078108628
O         6.97225838744598    2.08186997670545   11.88435271538605
O         6.23267472834640    4.59140606040029   11.39673643004901
H         6.52983073600671    5.21314294026898   12.08243755164304
H         6.29635083284332    3.67889785566285   11.74656233584709
C         7.02001874077670    6.47946227753939    9.33998469662778
H         7.18722642389773    6.96080990474121    8.37807143536253
H         5.96115921277312    6.47440265646534    9.60031927590571
C         9.14633172163574    3.22768420801072   10.94765726754634
H        10.01370173167640    2.81608571105995   10.42733214560740
H         9.33353389590613    3.23331447929620   12.02479042587075
C         7.25993545910022    9.13709777303050   10.46437080978670
C         7.65620440726210    9.93377286931980    9.40577460314059
H         8.36137844746451    9.53922465361529    8.68979671162001
C         7.16103782330597   11.22050374702669    9.29852216787266
H         7.47238760137519   11.84831199007857    8.47615425575251
C         6.26519232890357   11.71728653576005   10.24046619281454
C         5.87604793287391   10.89840279408073   11.29549313186030
H         5.18407424978150   11.27537494555794   12.03437287654637
C         6.36855299032908    9.61017391462608   11.40790107062054
H         6.08581553592225    8.96521628619798   12.22514410835615
C         5.71222793873654   13.10352205768599   10.11056935095667
H         5.52102403278266   13.53799125677530   11.08878467156723
H         4.76849787505471   13.07614004149280    9.56505900620380
H         6.39829626686433   13.74624573204000    9.56467814825029
C         8.52959040764365    0.42348260896380   10.57190571152676
C         8.38305437266169   -0.48156260891995   11.60476801051477
H         7.80738671692222   -0.19125543474446   12.46969966227777
C         8.96244817227224   -1.73408584696823   11.50182643869994
H         8.84659398752111   -2.44718864089349   12.30517212415712
C         9.69408779532662   -2.08610237891198   10.37266927523227
C         9.83170241427425   -1.15856659104330    9.34431205748198
H        10.39664971208416   -1.42068908023827    8.46138372827575
C         9.25382380427391    0.09406568531703    9.44121614557606
H         9.34586166201918    0.81887391715254    8.64745436322437
C        10.30099931273380   -3.45086576609032   10.25412362011672
H        10.56425489604912   -3.84545656172680   11.23249604354607
H        11.19036753124516   -3.42782231865527    9.62914514809861
H         9.58539800563883   -4.13490640906570    9.79710779264198
C        10.23207869929983    3.99376003338949    7.84896485214180
C         9.09420690296026    3.37647328471042    7.32812604111952
H         8.10848248036776    3.74827876671670    7.61189987390242
C         9.21047404629001    2.26902508841811    6.50861241249284
H         8.32323541620806    1.79764139171139    6.11287755871435
C        10.46431475562967    1.75158178563596    6.21688200722351
H        10.55785864160176    0.88191183673059    5.58284829133029
C        11.59418470641903    2.33912121245025    6.75864453459278
H        12.57061673651814    1.92487077092131    6.55205432092335
C        11.48149283413180    3.45807817989143    7.56896849932092
H        12.37066663433644    3.89735253597800    7.99620115198836
C        11.42237308125081    5.76159958487276    9.81785377270140
C        11.36719648554410    5.68417557204034   11.20454762300683
H        10.40792199175471    5.49318043897080   11.67650371215729
C        12.50982068111426    5.88830651116293   11.95657198686522
H        12.46512277538432    5.83444201611793   13.03438319322987
C        13.71270878781916    6.17120986462207   11.32865977759289
H        14.60565921896273    6.33060624668209   11.91542422194521
C        13.76828120770852    6.26570636111563    9.94780607067803
H        14.70282615250136    6.50182018312824    9.45919192015463
C        12.62653627131520    6.06680027826659    9.19052765862749
H        12.66660644288911    6.16645977976812    8.11419582930096
C         9.86156810475763    6.74629840218142    7.57988987779096
C        10.54478538088054    7.94948847373588    7.72207153586121
H        11.10280641825186    8.13662853806137    8.62572945368103
C        10.47161194592836    8.91363620690181    6.73227033882493
H        11.00441876689402    9.84593675179232    6.85325463323126
C         9.71295201197922    8.69242478579592    5.59417246361441
H         9.65437572825970    9.44874570367676    4.82520628720007
C         9.02327139093209    7.49994840433890    5.45110919660225
H         8.42346823497200    7.32440125647071    4.56998576760932
C         9.09546573492806    6.53206500419890    6.43766507535408
H         8.54770734722963    5.60745378648946    6.32419769457218

