106
CSD_code = JATJEU | q = 1 | S = 0 | Stoichiometry = C54H42ClN6OsP2(1+) | MND = 6
Os        2.17469527476644   10.30661407259185   12.86774689834060
P         0.79175240127560   12.14320874119474   12.19331043306356
P         3.61977616606437    8.53363212502998   13.57532507908159
Cl        3.49693296793236   11.82216650926209   14.08715862919592
N         3.09990584163358   10.37587724702856   11.02778584923494
N         1.10216812971012    9.11557056523612   11.91599193815560
N         0.83886883492076    9.77587520602975   14.34611039645412
N         0.57377929376754    8.03415351692679    9.91351255130700
N        -0.71682346566224    7.65222715134551   11.86563653090056
N        -2.23159325159033    5.89349615696712   10.52896993859083
C         4.17173023754681   11.06140765826508   10.62634850273132
H         4.64463749486710   11.68376034166335   11.37346518513231
C         4.66970754541620   10.99968985832985    9.34014690946772
H         5.53979524355539   11.57827208662931    9.07670648564795
C         4.03735733860555   10.18878207596452    8.40165677384382
H         4.40676788185645   10.12350403047333    7.39066975177827
C         2.92716929793676    9.47073599706084    8.79747790271947
H         2.38532794996338    8.82182062493106    8.12898448549240
C         2.47861889842034    9.58009506118994   10.11014805726690
C         1.32596241426906    8.85533396008345   10.61471239607894
C         0.06209290528883    8.49462811581832   12.50446621931032
C        -0.08358638768985    8.87778317585156   13.89799451159404
C        -1.08863905638832    8.36945734012555   14.71481361168211
H        -1.77978972302572    7.66278596505457   14.28398019240337
C        -1.15852694348120    8.78475762680968   16.02982851918905
H        -1.92570326415259    8.40897190674093   16.68785696538261
C        -0.21394613329179    9.69923583451177   16.48659184383024
H        -0.22849293246354   10.04986900190881   17.50547190778698
C         0.75603178569941   10.16304299209289   15.61952660534798
H         1.50151917137159   10.87265460378479   15.95075775811486
C        -0.43357330015100    7.44611640928741   10.57585918323445
C        -1.28037512624114    6.51748651556484    9.83648845027748
C        -1.08297073758140    6.31120808960313    8.46961559072404
H        -0.29892571737885    6.84737779008640    7.96075705176734
C        -1.91145678876622    5.41913243644363    7.81178315892476
H        -1.78957807599868    5.23336993770325    6.75480865160408
C        -2.90000544609610    4.76883175182954    8.53441753090767
H        -3.56605041893763    4.06540239240461    8.06072850941816
C        -3.01292064615652    5.04730843315024    9.89275944825682
H        -3.76845970914157    4.56577787322688   10.49926095432933
C        -0.27572846517659   12.92299046965544   13.44779093249727
C         0.31743160647133   13.24807350258220   14.66567321982695
H         1.35951784369190   13.01113709068377   14.82970824751891
C        -0.41468707724537   13.89745950229312   15.64215101464763
H         0.04970048051754   14.14845523430899   16.58369310350576
C        -1.73752211497404   14.23531610346331   15.40685215304627
H        -2.31096161175561   14.74155819323059   16.16818449444238
C        -2.32060528216578   13.93920382547193   14.18560349671918
H        -3.34482795984086   14.22090933088330   13.99253694012429
C        -1.59500151145947   13.29049461538144   13.20241264803798
H        -2.05755938401193   13.07852114740649   12.24922499637465
C        -0.33470956505596   11.47881329341712   10.92700528990353
C         0.04418689609931   11.50489274631668    9.58639615559319
H         0.93262426700652   12.04921128518250    9.29226598592573
C        -0.71605094062617   10.85036967616148    8.63418961994897
H        -0.41860348008018   10.88327040947303    7.59703825915292
C        -1.84760174793824   10.14620225077593    9.01141046542667
H        -2.43495836798989    9.62732171505431    8.26964472969664
C        -2.22126548808875   10.09899592770786   10.34512749455669
H        -3.09298774778526    9.53740109655893   10.64527361687790
C        -1.46541950262708   10.75368269308899   11.30055831151527
H        -1.75073829101892   10.70020226533373   12.34387359332671
C         1.45380753975547   13.64980064821826   11.40734452986726
C         2.75706966621773   14.07146669431378   11.64035437283183
H         3.40503617118724   13.49139960597139   12.27935078152876
C         3.20950436626397   15.25544118563744   11.08298385562475
H         4.22213909640876   15.57998349254735   11.26831503299103
C         2.36501186660556   16.02561486708256   10.30254980166613
H         2.71828632042967   16.94949217058168    9.87080602608297
C         1.05742542390881   15.61734023124125   10.08647238299317
H         0.39186172269937   16.22377799872919    9.49090217463407
C         0.59799250918286   14.43777101921290   10.63877533318674
H        -0.42417218729167   14.12646789900420   10.47411157398050
C         2.88771505077507    7.01738151910855   12.88645554528915
C         3.15254821229767    6.65453957314254   11.56685921098027
H         3.90551863321912    7.19159340692049   11.00338046061373
C         2.46199088202961    5.60963302789952   10.98009529424814
H         2.67783054012735    5.33187166026882    9.95938697415854
C         1.48507241079210    4.93359828949253   11.69345513264348
H         0.93939514494717    4.12615042608882   11.23044531292980
C         1.20097301062279    5.30199296288909   12.99838546884056
H         0.43064918953502    4.78583093370102   13.54989339690187
C         1.89010159347594    6.34481930129584   13.59038871746801
H         1.66148812674948    6.63821156708832   14.60717845266340
C         5.35885659992183    8.51030059523753   13.02996818935231
C         6.06582098059682    9.70940610039980   13.02917307404862
H         5.56655477148883   10.62362456339954   13.31696730192931
C         7.40773603659506    9.72143978429786   12.69401992441100
H         7.95241414849522   10.65339195172850   12.69575185225666
C         8.05296366683898    8.53959940445291   12.36962441199708
H         9.10007157223099    8.54801734859722   12.10833599369632
C         7.35769999347388    7.34112754405204   12.39747019456247
H         7.86379823296581    6.41628724359056   12.16464535668447
C         6.01634280642130    7.31963851671504   12.73254329362817
H         5.48618625408095    6.37848415280911   12.76412836947731
C         3.87393700811899    8.15097363061209   15.33976451753837
C         4.12749610316044    6.84423150432788   15.75093810764394
H         4.11957006590700    6.03505633501589   15.03453239198448
C         4.39165995507931    6.58095335212787   17.08178850974756
H         4.58420989258374    5.56644242377281   17.39684481405079
C         4.41858504030619    7.61311377609982   18.00661857588274
H         4.62606613175382    7.40060160056315   19.04419287936640
C         4.19609060458821    8.91610876596910   17.59463414959326
H         4.23878095732771    9.72497876900001   18.30811134413394
C         3.93003980765452    9.18875849906224   16.26436306313600
H         3.79196157422446   10.20818210502705   15.93584772555634

