63
CSD_code = JATJUK | q = 0 | S = 0 | Stoichiometry = C27H31Cl2NPRh | MND = 8
Rh        2.20753956343571    6.08063543095166    2.88680615608779
P         2.41774460109056    3.82957599317577    2.72710570933732
Cl        4.47967599848556    6.03802951679522    2.41855524475070
Cl        1.64207204983661    6.05536948580842    0.62074313337040
N         4.50726418939301    0.82886184299531    2.28011758939171
C         3.38183215758748    2.96388190845311    1.41445450800588
C         2.76994975942087    2.91710895296885    0.01561446041368
H         1.88370026073330    3.53280195882212   -0.10469189296154
C         2.73277847491559    1.61794758884716   -0.74322182403975
H         2.63129966337112    1.81832669351369   -1.80829252323415
H         1.88304627732755    1.01535108751548   -0.42460326879045
H         3.64273808200173    1.04418073912284   -0.58037438761441
C         4.03673400302267    3.65493575349510    0.23460025120635
H         4.01539366368710    4.73393241986957    0.22280385435414
H         4.96226354844241    3.22133992190792   -0.11824060150272
C         4.00593619893157    1.78738493207009    1.89879801100048
C         0.86775858255448    2.88293485037084    2.55208931861214
C        -0.29689386038590    3.53956300395089    2.17560754455821
H        -0.26718613952904    4.60691882064205    2.00544917972452
C        -1.46879862983579    2.82677056185133    1.98842145340457
H        -2.37152330064568    3.34149309578217    1.69340516887220
C        -1.47941415412101    1.45438012422863    2.17026345379612
H        -2.39245964428192    0.89622790012621    2.02465688300189
C        -0.31424274085778    0.79279612207256    2.52786981973175
H        -0.31881431326328   -0.27950959276032    2.65668425648363
C         0.85884322110330    1.49949023200192    2.71575812785375
H         1.76820150109615    0.98118351082869    2.98648298347163
C         3.17489311083630    3.16499115588807    4.24185953976507
C         2.41178745711089    2.59263409764394    5.25423643523273
H         1.34523905921958    2.47106311860520    5.12463035594034
C         3.02016045142110    2.16111229119367    6.41982471299722
H         2.42360539170701    1.70887284054225    7.19921868375518
C         4.38734678950577    2.30569408057600    6.58656519767850
H         4.85824298962700    1.96486995408169    7.49665520059424
C         5.14852144397132    2.88761054455374    5.58543675847707
H         6.21417194721498    3.00290457205907    5.71395425166508
C         4.54775724655929    3.32108745848872    4.41901674786133
H         5.13418382998673    3.79100581637811    3.64237349064565
C         1.39406722156329    8.09326389806480    3.30541739586484
C         2.47610837896073    7.87442220307468    4.19180322766105
C         2.17774368679780    6.70482818789266    4.98293754647597
C         0.84727439400769    6.27839210639717    4.65553562625943
C         0.38181332157358    7.09744620357096    3.58686953556076
C         1.19546885941105    9.24106350766244    2.36726169491216
H         0.50026418932066    9.95828600890450    2.80832289882967
H         0.77639393816964    8.89626480024359    1.42309499438952
H         2.13485155252755    9.74670206808223    2.15799658451854
C         3.68880062708340    8.72457644844317    4.38140415195342
H         3.70707501682523    9.10188225505902    5.40469499739904
H         3.68950632647252    9.56679851729793    3.69440588690389
H         4.59909721483037    8.14779957119829    4.21607439028745
C         3.01087087917944    6.24333174332980    6.13579659058568
H         2.83510308112048    6.89095886997985    6.99726869714902
H         4.06855965925578    6.28874660396286    5.88448508126224
H         2.77181400331821    5.22039959064422    6.41747022320720
C         0.02832139511279    5.27858911415398    5.40756878926810
H        -0.66305021493847    5.81009149259916    6.06460582605866
H         0.65983472435672    4.64156107729534    6.02129320775657
H        -0.55576657366290    4.64945980915266    4.73745707821246
C        -0.99887696391083    7.12974767768766    3.01372839651252
H        -1.50493043509598    8.03673354471216    3.34949679998553
H        -1.58042982130853    6.26961473388747    3.33593834379624
H        -0.96776319125610    7.14978118119468    1.92483805111492

