96
CSD_code = JATKEX | q = 0 | S = 0 | Stoichiometry = C34H51BCoN7O2 | MND = 6
Co        3.09602778389910    2.24278383147650    3.63508663221551
O         2.00638318255687    3.12198995684664    2.40587542690499
O         1.51270682694884    1.99864798266470    4.64251781167909
N         2.89016173765968    0.57160141620705    2.71311749800828
N         3.99902323309088   -0.16276689888663    2.50233493780093
N         4.68823663403360    2.63904929346937    2.57481344412129
N         5.60941497956635    1.68232738255606    2.39724197487807
N         4.23948327379930    1.35095150749020    4.95369427548264
N         5.20767032123085    0.53136796960375    4.51735183452218
N         3.14642472172740    3.88969698595250    4.51555328933185
C         0.44818649021739    0.37427241001924    2.16789107302937
H         0.35113916152579    1.31629285123252    1.63338968920296
H         0.10188799478434    0.53292002858292    3.18535395577214
H        -0.17894601944036   -0.37275364559101    1.68893825255740
C         1.86165212376744   -0.07861756784314    2.16692099200122
C         2.32532909185517   -1.27038293056703    1.58679503519807
C         3.68963771854235   -1.28265752204396    1.82327879295069
C         4.70578311459748   -2.29845726946082    1.43811067871025
H         5.47168860274533   -1.85306043316123    0.80620041791347
H         4.23246045538360   -3.10938001800173    0.89211320647575
H         5.19093151367548   -2.70940273049266    2.32143829696064
C         1.49614879764800   -2.28544181836885    0.87421265470116
H         1.00674289220573   -1.84064457312727    0.00820816282256
H         0.72491845360596   -2.68193099826993    1.53417307284759
H         2.11086599089684   -3.11366883625739    0.53178174887306
C         4.35361633929742    5.01140448389762    1.86761769633631
H         3.28834797176168    4.80579123833606    1.90744865538109
H         4.59074652004740    5.52785255442753    0.94041446693314
H         4.62385517203473    5.65774109828319    2.70324853180197
C         5.10404552529224    3.73001999574502    1.93379731523350
C         6.34509364697588    3.46719869633032    1.33287175912904
C         6.62780719448855    2.14765677555006    1.65099570657486
C         7.80337609883834    1.31237192476036    1.28794409928198
H         8.30590654071202    0.94966326698416    2.18273512749563
H         8.50847272441850    1.89475999918969    0.70180244644713
H         7.49208255974078    0.44962230273264    0.70191060306752
C         7.15047007251431    4.42936519498025    0.52694184149873
H         7.28134340976075    5.36411453188872    1.07030393684148
H         6.64953085915811    4.65372173563933   -0.41514038075627
H         8.13233797332803    4.02079231894069    0.30277828754396
C         3.38659249574523    2.16679911672966    7.14529793913216
H         2.45329803415228    2.31374623141945    6.61279405973525
H         3.81914576333023    3.13819695495534    7.38737797043589
H         3.19760470531021    1.63135720719312    8.07301053185934
C         4.30572706847656    1.38268001671987    6.28323607673737
C         5.35731191220160    0.56164903193921    6.71737474549910
C         5.90357126103113    0.03542279688881    5.55702615787620
C         7.04131058331086   -0.90669445494786    5.38583710328686
H         7.82565989650646   -0.45434123554008    4.78171336764422
H         6.71164520247236   -1.81570186255490    4.88634145533473
H         7.45433081014928   -1.17233499994771    6.35472695949417
C         5.75765512568660    0.32756793958673    8.13443822086857
H         5.86467532668383    1.27550058372442    8.65995316929260
H         6.70321599667288   -0.20590136950249    8.18768501995648
H         5.00118732574196   -0.26214686679751    8.65361495847912
C         2.45135658339816    4.75759257199357    4.81882924981433
C         1.62745459483001    5.85604462631304    5.21873479664016
H         1.65518280076394    5.96600062122325    6.30260920243876
H         0.60159882931223    5.65649120678222    4.90114540063839
H         1.97936990004170    6.77401509245120    4.74853001246045
C         0.83010170343848    3.41992250455606    2.95040932424446
C         0.53335887520992    2.78219288723153    4.17918831724596
C        -0.70320633369100    3.01555019634651    4.78923417536180
C        -1.09774126358455    2.36637182651261    6.11159952589264
C        -2.61502844654238    2.37451188794198    6.34308141690564
H        -3.13830625969175    1.97335979739870    5.47809669398904
H        -2.98894399382556    3.37479198021129    6.54924192706312
H        -2.85061644439499    1.75241955373756    7.20499567339114
C        -0.64053223004413    0.90466575479261    6.15710287326842
H        -1.18839831309337    0.32175052543084    5.41862974014649
H        -0.83063014125199    0.47975417500305    7.14164393979059
H         0.42017382856285    0.82969436600543    5.93902560548093
C        -0.43093270279719    3.15796073252290    7.24603623614990
H         0.64736600070763    3.16360280451174    7.11801940166336
H        -0.66385203419512    2.71345440462121    8.21216515152882
H        -0.78548644800419    4.18796204818309    7.24452746745379
C        -1.54481566789628    3.95020441893672    4.18415049248269
H        -2.47780010579692    4.17691091266438    4.67097562220460
C        -1.25405631200776    4.60512808914189    2.99487323564320
C        -2.24841066484702    5.61723160044372    2.44071485650694
C        -1.78924157388139    6.22677789143268    1.11346904010651
H        -0.84704804234503    6.75716929046695    1.23118165533485
H        -2.53505515008904    6.93706814575792    0.76003964782969
H        -1.66873194017282    5.45689000893464    0.35560673726474
C        -3.59859055395352    4.92728168026027    2.20220948537076
H        -4.31348029195918    5.62962340263086    1.77666899258751
H        -4.01245559047215    4.53864438103516    3.12825702913990
H        -3.47435923134689    4.09669760971534    1.51094514018852
C        -2.42589315661305    6.76058264073657    3.45111484063419
H        -1.47892656688974    7.27456529261031    3.60818926664203
H        -2.77572451742182    6.38772974076344    4.41002056410420
H        -3.15099045883804    7.48332042121922    3.08115420702659
C        -0.05117922598131    4.31252802850818    2.36156005625043
H         0.23992973025846    4.76336710424670    1.42734290005246
B         5.36357753172647    0.30504443911888    3.01359589454797
H         6.22274009100549   -0.45748624396906    2.76259322107517

