109
CSD_code = JATLAU | q = 0 | S = 0 | Stoichiometry = C52H48O4P2PdS2 | MND = 4
Pd        8.13222211902278   13.85085325520918    4.34939528484642
S         8.75326705098380   14.64955657260658    6.92144692489655
S         5.85678030366170   15.57478902819952    3.52660220948629
P         8.59432429386370   11.80216188988328    5.33959846139772
P         9.15911059745341   13.43264382862086    2.32037581096579
O         9.38111483592168   13.33834311113650    7.09940618684003
O         9.56527721835642   15.63140041988258    6.23100707049207
O         5.21248366453681   16.33683684663049    4.57571233280385
O         5.51067011129362   14.16167969036329    3.46837400524247
C         7.22254675126463   14.44477886623327    6.10821931330668
H         6.70747938863658   15.40127691028939    6.11464842497643
H         6.65336379936179   13.70049022465370    6.66509422956532
C         7.62051235615898   15.74285213766922    3.60927504364903
H         7.83164091122341   16.58673272934586    4.26810846665660
H         7.94626762351726   15.97672350236016    2.59365057762754
C         7.67992655425074   11.15498051265899    6.78396008627150
C         8.30779994948385   10.87264076935392    7.99233348657184
H         9.37281183881337   11.01921784772588    8.08457243136706
C         7.56383977003661   10.45059405475393    9.08028915910855
H         8.06013609214922   10.23397489344478   10.01581808825954
C         6.18867733611279   10.31576140794832    8.97888804531129
H         5.61118828713585    9.98990834795628    9.83182624775448
C         5.55604069040075   10.61458439766976    7.78342045317962
H         4.48221893879010   10.52748220192498    7.70275095131303
C         6.29536445502590   11.03484521340451    6.69227447376993
H         5.79345140371881   11.28584919249427    5.76751148483457
C        10.31320399872962   11.26881332327029    5.58602012533451
C        10.66998213909095   10.01442366332472    6.06782952126785
H         9.90642670253302    9.30351498742542    6.35225703564898
C        12.00710947354135    9.68336707547509    6.20876795573749
H        12.28115615812468    8.70632529185104    6.58121298104065
C        12.99272131058662   10.60101846708774    5.88480729971298
H        14.03411138685764   10.33764588154476    6.00156300282247
C        12.64130441601161   11.86164968548671    5.42914835386282
H        13.40705761811127   12.58679643877086    5.19303712241564
C        11.30691940983825   12.19188861443485    5.27966527362760
H        11.01230263807358   13.18333351203205    4.95326966551174
C         7.94710133696986   10.61109103918220    4.08360974917312
C         8.48727451563432    9.37794989715529    3.74645974220387
H         9.40424971381758    9.03946078849040    4.20393813115226
C         7.86851115193776    8.58052455540577    2.79847704594070
H         8.30107320542846    7.62412346961411    2.54171678805484
C         6.70363058376929    9.00082107590738    2.18144820691172
H         6.22144359343290    8.37047379525714    1.44842180801821
C         6.16730528542546   10.23845452212356    2.49752022143534
H         5.26360668288648   10.57701343028410    2.01066161166192
C         6.78991711347753   11.04325322319937    3.43419534161224
H         6.37918277446631   12.02833786581326    3.67114539434404
C         9.68330548508844   11.81017992902169    1.64475788806257
C        10.83659403367919   11.23016520513494    2.16855996601809
H        11.40242470253416   11.75826235932795    2.92186934318398
C        11.26488768946250    9.99284850287618    1.72939341509160
H        12.16069515056888    9.55816656921449    2.14847783494389
C        10.54858811666537    9.31574053863694    0.75616360746989
H        10.88237503257271    8.34878443296273    0.40986751129036
C         9.40449644827113    9.88698969647773    0.22739889002189
H         8.84383475082811    9.36714948453217   -0.53565624056337
C         8.96972533603225   11.12434074707699    0.66873284124512
H         8.07698827881599   11.55696766414612    0.24310532913668
C        10.72997907301919   14.35406018266427    2.23437113255995
C        11.02090335033917   15.24645152478059    3.26283538353858
H        10.32044310859952   15.37681353537523    4.08920629571016
C        12.20825225521683   15.95931750335001    3.24240172479055
H        12.43144770592348   16.64419686079870    4.04656225279623
C        13.10529555484151   15.78793911696702    2.20115848650086
H        14.03217712431072   16.34275934830293    2.18678549719515
C        12.81797522173991   14.89913309236352    1.17608613746598
H        13.51865758335961   14.76408272135623    0.36468947990737
C        11.63646923823586   14.18128258838291    1.19033744537637
H        11.41401887836067   13.48071893455759    0.39668110740190
C         8.20312744514584   14.09212348212841    0.90723582042203
C         8.68450924983183   15.05602784762570    0.02912190795656
H         9.67766627387228   15.46214976399761    0.15945071841831
C         7.88894770724305   15.50793683641809   -1.00993779820286
H         8.26913475600689   16.26117955876177   -1.68472221467396
C         6.61555305211417   14.99648205393499   -1.18886578217957
H         6.00295441466981   15.34230165584536   -2.00783173651130
C         6.12400347628688   14.04873790953741   -0.30647355248881
H         5.12670334162044   13.65651210488729   -0.43598334176764
C         6.90544205768580   13.61042068367070    0.74589906349870
H         6.50988195979635   12.90882935429319    1.46605185114162
C         8.44627091344974   15.25962776805950    8.58665919925807
C         7.96316565589470   14.37831452570599    9.53656932076044
H         7.84699830867006   13.33717301669685    9.27540213242847
C         7.65834844153544   14.84348769241738   10.80178185690018
H         7.28455748407653   14.16003883504282   11.55061063315220
C         7.82602205638187   16.18778480663520   11.12442825187696
C         8.30938161533359   17.05705580831599   10.15365917453409
H         8.44561989141943   18.10184866955853   10.39281288000898
C         8.61696414238075   16.59687553231068    8.88471098545292
H         8.99937453240779   17.25415072879853    8.11955119760697
C         7.47255810171740   16.68140328185628   12.49414428797715
H         6.38915044477629   16.73110113300606   12.60324727598864
H         7.87921247731238   17.67399040876412   12.66873441755863
H         7.85272498525493   16.00455697551437   13.25660458146970
C         5.26412098951079   16.29196775060992    1.97139414037977
C         5.88406051391938   17.38572022164729    1.39836496713932
H         6.75868859997309   17.81662860269323    1.86168269371218
C         5.37298499107087   17.92816052307859    0.23315064036688
H         5.85936010627810   18.77955178307124   -0.22131669673330
C         4.23208401655758   17.39697653803391   -0.35986594536795
C         3.61144327192341   16.30883359845566    0.24016893980292
H         2.71869459987798   15.89117577123853   -0.20329168364219
C         4.12677044734312   15.75685996851216    1.40003262780783
H         3.66508197946338   14.90774920935852    1.87867316988393
C         3.69541228018248   17.99686908645326   -1.62412049568869
H         3.54599793048048   19.06842021825218   -1.50363870258572
H         2.74846440406732   17.54153074048071   -1.90154774920550
H         4.40242141627416   17.85165656032335   -2.44056399366016

