43
CSD_code = JATMOH | q = 0 | S = 0 | Stoichiometry = C10H20B8MnNO3 | MND = 8
Mn        7.36395437264682    0.57823011819157    2.14426717622913
O         8.88152893626339    0.99400878549032   -0.32421837171466
O         7.68747894055904   -2.30027794074214    1.72131247372967
O         9.86255171846401    0.63807651796591    3.67479247764712
N         2.56542205617341    3.03797135392901    3.59797652465236
H         1.92783399565162    2.30539084049659    3.87856592291547
C         5.59978013204143    0.55116833013820    3.65325516502366
H         5.78756413731892   -0.25367373806680    4.36427498670901
B         6.47718371185917    1.96506355783640    3.70135912773370
H         7.34446783852523    2.20699123699371    4.46632686745500
C         6.30737089531261    2.65503287818048    2.19785835927256
H         7.02643895659098    3.38953033407282    1.83425850938679
B         5.57044702996526    1.59637624270584    1.11354813613259
H         5.78396091775468    1.68413287451525   -0.04616012100021
B         5.08995427024330    0.19298164058815    2.08839590496902
H         4.88159209399451   -0.92515110949744    1.76534583900400
B         4.83300514371391    1.89674315332777    4.36937394740676
H         4.53094358375537    1.93520652288027    5.49948919656836
B         5.28923414544873    3.27349416005653    3.41816425747957
H         5.38479456950375    4.36779969045211    3.81913374878908
B         4.68493651274210    3.00311588502111    1.77299972152277
H         4.43950874242294    3.94134870334114    1.11616120567730
B         3.88809865142451    1.45329210791911    1.68398229229010
H         2.93176934349309    1.30307243978400    1.02100061943642
B         3.94357260177990    0.80266533141540    3.30321655035725
H         3.09138119355857    0.16074022435582    3.79400490590469
C         3.78022617945747    2.49104055649053    3.12047666255409
C         1.80855477959226    4.16348473737208    3.05078587154797
C         1.31347424795195    3.92260826107570    1.61602862788379
H         2.13969074646808    3.86784173058238    0.91479878022077
H         0.65790158110809    4.73460786230545    1.31187496825959
H         0.75355831702476    2.99083193597188    1.56121864728047
C         0.59011104783492    4.30924239388897    3.97275621605958
H         0.91468978013479    4.43037365872251    5.00317995211116
H        -0.04878768165946    3.43024651480989    3.91049400144415
H         0.00165793122062    5.17718553464853    3.68912575417556
C         2.62681335360504    5.45441694155559    3.12825319685527
H         3.01883865271927    5.58300738117601    4.13370070375293
H         1.99068210649518    6.30342813202092    2.89154910413471
H         3.45499718231048    5.44673174494859    2.42906524334504
C         8.86699395037078    0.63471246352170    3.09705568031168
C         7.54719677281839   -1.16898023321960    1.89038673960570
C         8.27682656133970    0.83679024277810    0.64436442688016

