83
CSD_code = JATPID | q = 0 | S = 0 | Stoichiometry = C35H38FeO7P2 | MND = 7
Fe        9.54929192932395    9.01191213328931    5.29685742406032
P         7.58440181060640    8.99286665813625    4.44796330599315
P        10.64123161638809   10.03591914493848    3.78020606874495
O         7.36824880242827    8.60530316213475    2.86876842943656
O         6.45754295465118   10.14470975320171    4.46772966098619
O         6.75231496909683    7.86163961758131    5.23192249586112
O        11.65319811692974    9.20214824525958    2.79402119737932
O         9.73749805021812   10.70772287734472    2.61051704890178
O        11.62637510893568   11.21669530030315    4.30885943205461
C         8.23965927516956    7.74006242714653    2.17617795689298
C         6.58925111186917   11.35232315262102    3.74019345932810
C         5.36679912887983    7.63436826938299    4.99994638219620
C        12.59508519686375    8.33745519208673    3.39992310292237
C        10.18240991413020   11.13598312288487    1.32622365866501
C        12.69189934452874   11.80938546322919    3.58663590142968
C         9.80714222351451    7.35542220845515    4.81829070993832
O         9.93396773013620    6.23081837666577    4.58388363606107
C         8.75278108333621    9.60212391422333    7.14244410170694
C         9.71174633254392    8.51480469888913    7.28523075305637
C        10.77937995493849    9.40892644299589    6.88054165298299
C         9.80065445467644   10.49077457528558    6.67842328479572
C         7.38960037604993    9.83448615954307    7.55895343679636
C         6.65498015345311    8.85441839859615    8.23155651754981
C         5.35423096993714    9.09896229723682    8.62464437961692
C         4.76031826609872   10.32388847230407    8.36646221721751
C         5.48796648646045   11.31329540487835    7.72449676868648
C         6.78802342556587   11.07575475763759    7.32887145778287
C         9.67355732766863    7.21602172323848    7.94513970217847
C        10.57240414747720    6.92932787003453    8.97231188063673
C        10.52947011032388    5.70820503964649    9.61938591496441
C         9.59036310866216    4.75810608862042    9.25558932756132
C         8.69042588514251    5.03605151023534    8.23815381022312
C         8.72912775601807    6.25305648196671    7.58674379296390
C        12.22152710092784    9.32651403935835    6.88550251608947
C        13.01772797791900   10.47534251247182    6.87787315845034
C        14.39547555389724   10.37410623180629    6.86144483318422
C        15.01010429487836    9.13237495625446    6.85904689966840
C        14.23071691237621    7.98501707164845    6.86828488444400
C        12.85465997385958    8.07765604983600    6.87968861412907
C         9.91020491273568   11.94939547838418    6.69168073442174
C        10.43862388025812   12.58984615632733    7.81155545855594
C        10.53521846719104   13.96864574093515    7.85013328565569
C        10.10195575127493   14.72876011645086    6.77665993312447
C         9.56753941589794   14.10107470978582    5.66295921967703
C         9.47191888356644   12.72313265648552    5.62161767870465
H         7.99139658324918    7.82695173161101    1.11758463845096
H         8.10524526305170    6.70580366621447    2.49963399447066
H         9.28086617889058    8.03073874232580    2.33723845740845
H         6.56789698522883   12.18698096975770    4.44346366407806
H         5.74127814498556   11.43382921168119    3.05755887943672
H         7.51399228724855   11.37076500936350    3.16474394735547
H         5.16712228660022    6.59880800909719    5.27573689746183
H         5.11621691713504    7.79472766201623    3.95045979431593
H         4.77291778815372    8.30448292210218    5.62234632199354
H        13.02075999590393    7.72761556287682    2.60371400756535
H        12.10618052635906    7.70080074823482    4.13907244624701
H        13.38473950853811    8.90241030604113    3.89975121187900
H         9.30600039732801   11.12490035180639    0.67724215604336
H        10.93856594394045   10.46095000203628    0.92727608172577
H        10.58371430034057   12.15031851248803    1.37934261800448
H        13.57148852978587   11.80808692585054    4.23391812501950
H        12.42834993485519   12.83991123487279    3.33879331367005
H        12.91717443995434   11.26166690810244    2.66927486198988
H         7.11102548372680    7.90065294869159    8.44330167512599
H         4.79691773352936    8.32742543954893    9.13711645317830
H         3.73972671167429   10.50868396390053    8.66908698673868
H         5.03570692865948   12.27609684301088    7.53191397632021
H         7.35354268360295   11.85277854942212    6.83758766222492
H        11.30160493164631    7.67222499679553    9.26250005197907
H        11.23263464681994    5.49778639612718   10.41259680783313
H         9.56077823067371    3.80348284233065    9.76041209654012
H         7.95953861139882    4.29488478068362    7.94768333998602
H         8.04741468298700    6.47263235956556    6.77813089075404
H        12.54631301601140   11.44552589612740    6.87523512300786
H        14.99809114500864   11.27234067364213    6.85560414661972
H        16.08775070474352    9.05808065768604    6.84882163955389
H        14.70266470517700    7.01289618383855    6.86166604366371
H        12.24978030669192    7.18284017596683    6.86352063125494
H        10.76951597683349   11.99792800663822    8.65348819443111
H        10.94945213245144   14.45302911273923    8.72292346064737
H        10.18004647862791   15.80587482985834    6.80787509753858
H         9.22707384500738   14.69013963804578    4.82247470361410
H         9.07069478636662   12.22124256915975    4.75309351619009

