41
CSD_code = JATQAZ | q = 1 | S = 0 | Stoichiometry = C14H22AuN4(1+) | MND = 4
Au       11.47917112983085    1.22816157319212   17.55122748871239
N        10.94428878125082    0.12340533512310   16.05197209046150
N        12.44544905493646   -0.18071053304813   18.46594935965774
C         9.95319384929125    0.76331951104154   15.20102901274394
H         8.95527638552197    0.48267448742479   15.56217108383551
H        10.04913817107760    0.44176219532589   14.16255887794359
C        10.12624568887428    2.27395999829584   15.28224496286300
H        10.92161234956016    2.59559997181842   14.59744776523798
H         9.19583495373090    2.76250077948808   14.98761114099421
C        12.64012019085900   -1.39802784664001   17.98600845693705
C        12.15025712617725   -1.81260846549238   16.75099838957336
H        12.40861737328273   -2.81865365285433   16.46380589187583
C        11.32521625025676   -1.12922577733345   15.86252750121066
C        10.84316712809443   -1.87439106388394   14.65559251447477
H         9.75535425407056   -1.92508941598049   14.65027781181331
H        11.23660648773118   -2.88537443468943   14.64784874170766
H        11.16463236541914   -1.37497340699882   13.74245086561593
C        13.40358232046597   -2.39957044836380   18.79781234820808
H        14.42224894835008   -2.05466311226977   18.97265306825029
H        13.45069833088528   -3.35337731282194   18.28291402986852
H        12.92497439265247   -2.55003198000117   19.76442698698431
N        12.01362857168174    2.33272923525656   19.05078348213440
N        10.51250618741712    2.63688343852641   16.63674938433376
C        13.00476384033449    1.69283722223720   19.90168511834155
H        14.00267267209676    1.97348668777732   19.54051223162715
H        12.90884074553789    2.01440621697589   20.94015882479172
C        12.83170214025574    0.18219324535114   19.82046759412782
H        12.03632796217481   -0.13941711419680   20.50527055991407
H        13.76210322758199   -0.30636373539045   20.11511383738691
C        10.31781196546101    3.85418776738993   17.11671965934877
C        10.80767445531359    4.26876009103642   18.35172862411528
H        10.54932855367745    5.27481442068527   18.63891444646755
C        11.63271252057327    3.58535980011153   19.24020518935792
C        12.11479093887899    4.33053652842659   20.44711930784642
H        13.20260717402751    4.38120441759724   20.45239410674603
H        11.72138169956426    5.34153315061944   20.45484347320148
H        11.79334371974340    3.83115788553134   21.36028632680592
C         9.55437442572646    4.85573725114317   16.30493417805732
H         8.53571912563338    4.51080599848566   16.13007472876447
H         9.50723793231884    5.80951628145757   16.81988016203547
H        10.03298660968219    5.00624480964684   15.33833037562650

