66
CSD_code = JATSOM | q = 0 | S = 0 | Stoichiometry = C12H40B10P2PtSe | MND = 7
Pt        3.45239036422481   -3.23589145883974    0.09473065907506
Se        6.07006408569540   -4.16848201520601    0.90593320888859
P         4.00450132565017   -1.51381756769652   -1.52685549454717
P         2.27485219744043   -4.74668722413801   -1.33739092018151
C         5.79767192694531   -1.38711945005634   -1.98847801623214
C         6.29127180721586   -2.61893237556837   -2.73412938110303
C         3.75603853106549    0.21097440888913   -0.89692087145269
C         2.31088456610116    0.46247193192609   -0.48927394526494
C         3.17496286021620   -1.40073047042518   -3.19503751199871
C         3.64013595481191   -0.31728242599896   -4.15983303946057
C         3.16121568580550   -5.44051078674189   -2.81531216827721
C         4.37000433221725   -6.26905288216423   -2.40319274555381
C         0.80530856811562   -3.97382771630722   -2.16705754718498
C         0.10818567511426   -3.03050778046575   -1.19481465397722
C         1.47614560376092   -6.25705003649516   -0.60808792330271
C         0.94430005109946   -7.31202049912592   -1.57071062292403
B         4.43735137065180   -5.28253268688217    1.48004031225381
B         5.71624715993006   -5.05764137992339    2.77878508066858
B         6.06579594044925   -3.25491104319893    2.79380165714781
B         4.87475081846953   -2.30253718005561    1.61342509545187
B         2.91506285821529   -4.24990147362441    1.99962827771115
B         3.98226839651153   -5.20184538285624    3.11024215091335
B         5.03448254290671   -4.01342082818209    3.99780462009918
B         4.62999811368559   -2.39096027665345    3.33945580421320
B         3.23886904359435   -2.54391468986766    2.23979041899413
B         3.36590924051611   -3.60059850146349    3.63899471563407
H         6.35413358262308   -1.28698835299586   -1.05417177460561
H         5.96492713048335   -0.48211905210114   -2.57622292353295
H         7.35899342972698   -2.54504635311275   -2.93038597460397
H         6.11721890046072   -3.51148180630864   -2.13294375497298
H         5.77693426441243   -2.73594650569112   -3.68546630759160
H         4.08317892231895    0.93614673296422   -1.64540559932806
H         4.39773422377963    0.32035255901977   -0.02142875934363
H         2.20660658060002    1.44925043039427   -0.04262820941254
H         1.64236681452070    0.40486097173652   -1.34598852102113
H         2.00342694448143   -0.27951137861904    0.24523365255352
H         2.10970518021636   -1.27112760950158   -2.98960541977490
H         3.29211809635140   -2.37819460162574   -3.66863794728885
H         3.04436529125645   -0.36359646936504   -5.07066497921005
H         3.51741566275626    0.67521823744993   -3.73488356162825
H         4.68215215926782   -0.45171713511521   -4.43753189169532
H         3.49655381143361   -4.59069594982940   -3.41404893419207
H         2.47148536392948   -6.02787419541018   -3.42463804220710
H         4.93032867901057   -6.59773411960827   -3.27684106998053
H         5.03274464987432   -5.67679824295642   -1.77208192989115
H         4.06672508769459   -7.14788238715171   -1.83963048459042
H         0.11427177688474   -4.74468246969091   -2.51389191098715
H         1.15437544404211   -3.42132031364306   -3.04054347458683
H        -0.68310907922041   -2.46859750668537   -1.68820257157286
H        -0.32887601697495   -3.58500577867881   -0.36790189270423
H         0.83413378090635   -2.33037196847851   -0.77782348094127
H         0.66016930497223   -5.87774972191488    0.01147915151759
H         2.19765286042330   -6.71034851652506    0.07223889860054
H         0.39241238513382   -8.06468925797522   -1.01028982183945
H         0.26715778212241   -6.88580924135985   -2.30802453535331
H         1.75172988601359   -7.81583819955887   -2.09549887439189
H         4.34644849414914   -6.24900035204127    0.80706923442799
H         6.54406870409880   -5.87611467490743    2.97508730058323
H         7.15513194734382   -2.83714974403724    2.98712506562307
H         5.41085443207464   -1.37098104324471    1.11742054705691
H         1.83483901850932   -4.72818156306326    1.86501736605963
H         3.54371944526346   -6.17801708320507    3.61445128249504
H         5.40075180348208   -4.16248671295703    5.11109889424570
H         4.79655541597144   -1.41867920595244    3.99239926831481
H         2.42715499515282   -1.67429873391766    2.22481135925619
H         2.55767382399703   -3.53666289319938    4.49811346693233

