25
CSD_code = JATVIJ | q = 0 | S = 0 | Stoichiometry = C14HgN2O6S2 | MND = 8
Hg       -0.02147141869016    0.01246435672819   -0.00497513314619
S         1.01034480905834    2.21528599247317    0.43644132092046
C         1.41923782737961    2.43221820265807   -1.16456466424889
N         1.70683772220810    2.59124888528145   -2.26476830227327
O        -0.58154210148788    0.46725793867932    3.65902102791378
C        -1.56857530287012    0.58252321418174    2.80000584060387
C        -2.33457084842342    1.03738042924717    1.97993815925767
O        -3.35625322143092    1.16637054084355    1.15600808462746
C        -3.05091038792994    1.20519643554813   -0.11958221969610
C        -2.62860265170791    1.55743529375925   -1.20108616539845
O        -2.30845571377660    1.59064821998371   -2.47308385562774
C        -1.35220492445926    0.75963076941355   -2.83929298507873
C         0.44721447293148   -0.23590537983154    3.24725305839608
S        -0.96496134612314   -2.23368047886842   -0.42641184996639
O         0.64693892446674   -0.49569281311578   -3.64405813770857
O         3.44453257370736   -0.91590317340875   -1.09353620252230
O         2.18441233824191   -1.83058561345283    2.40264397446827
C        -0.29277252082011    0.32375928531820   -3.23088298733975
C         1.17971060804614   -1.11339671905517    2.84916366555546
C        -1.47373494604079   -2.40216730759162    1.15167290484031
C         1.59259265284745   -0.75800609314461   -2.77269312946392
C         2.51340118378592   -0.68658342963724   -1.99013822060508
C         3.02382533047349   -1.17984377374990    0.12283997483432
C         2.59220684046176   -1.56068727740232    1.18332568650468
N        -1.82719989985633   -2.52896750485653    2.23676015514916

