37
CSD_code = JAVBUE | q = 0 | S = 0 | Stoichiometry = C16H8F3MnN2O6S | MND = 6
Mn        1.14120944134120    0.41677426875757    6.89332383466699
C         1.97933980640454   -1.13103986151530    6.60447684197706
O         2.51920201685511   -2.13105639181461    6.40825815667342
C        -0.11413081406331   -0.34078092626651    7.92006749170639
O        -0.91342940196475   -0.76753505731246    8.62004965713780
C         2.04401226564245    0.77963160434124    8.39737135930244
O         2.54767655463069    1.06099144325405    9.38481398072598
S         0.11069313848909    3.50874095227630    6.27019662969015
O         1.37433180800093    4.17507359863995    6.12305207698224
O        -0.71984273219499    3.44318805602413    5.09884899813382
O         0.17570303789407    2.25014340353343    7.01961156020892
C        -0.85519105084368    4.54384079334023    7.48399813941560
F        -0.20205831299503    4.65172985745000    8.64085569218720
F        -2.04000935447437    3.98309915516396    7.73210103474790
F        -1.07230993783438    5.77297609093272    7.01645660234544
N         2.38790445103176    1.47588743640882    5.67758592901770
N         0.05711192233407    0.31035124488635    5.16648932415778
C         3.52097935369044    2.08439271300701    5.97239715153408
H         3.99762975502167    1.80577056445648    6.90328514448343
C         4.10761670474019    3.04622997693443    5.14863500211432
H         5.02512210062928    3.51871658394048    5.46081869930063
C         3.49432163984063    3.39226809377967    3.96991800028855
H         3.90945247486991    4.14823636391742    3.32040582187074
C         2.29347985686474    2.75734897600372    3.62112490060000
C         1.56363109539818    3.05593173651207    2.43530372156715
H         1.96901710365034    3.80031464532913    1.76640161313902
C         0.38585957795881    2.44552720584959    2.16399364895706
H        -0.17330487598181    2.68999825380422    1.27337082480973
C        -0.17150408976772    1.49023769069808    3.06020265232912
C        -1.41663057738462    0.87857900100621    2.86021161604910
H        -1.99295624784206    1.11117012110424    1.97728703972378
C        -1.88578379174575    0.00374308481911    3.81100094911025
H        -2.84308146788624   -0.48056824301158    3.70052126525788
C        -1.11881888873595   -0.25098991922370    4.94878409056981
H        -1.47814751793100   -0.94024406434439    5.70198232797238
C         0.52891012320678    1.16696155599615    4.24200363616109
C         1.77929483315313    1.80185999132034    4.52109458508091

