67
CSD_code = JAVBOY | q = 0 | S = 0 | Stoichiometry = C30H24F3MnO6P2S | MND = 6
Mn        2.97043819623911    0.06782605494783    9.56252982053835
P         1.92766346504500    1.52914217415548    8.09643566204942
P         1.81657534119214    1.26265325147310   11.15629334446470
S         0.34504577737242   -1.51440933989673    8.64249446185611
O         0.99085466084591   -0.64407038989795    9.64080582718221
O        -0.66212910144738   -0.83246929048483    7.88543448166809
O         1.28229996920674   -2.34976646492843    7.95441047096325
C        -0.60583232766840   -2.67546582170319    9.76814145124583
F        -1.71058944139532   -2.08734195226391   10.23587227529063
F        -0.97442823968037   -3.78460512836345    9.13348858293713
F         0.14113324321730   -3.02525027720757   10.81744304140785
C         3.57276769392906   -1.06766217780864    8.30503428625411
O         4.10619013250230   -1.77345514426029    7.58183877278329
C         3.47813029413687   -1.13265520528331   10.77969491445300
O         3.75346172815441   -1.95078680907689   11.53102566756204
C         4.53868809913703    0.89958647751094    9.53110281298416
O         5.57565766870070    1.40892998558752    9.46429751010273
C         0.39510650956552    2.14854653443978    8.91531689800421
H        -0.00677479581673    3.00292682850668    8.35994307945093
H        -0.32652308023379    1.32713565623554    8.83998168506110
C         0.69656606155036    2.50933886111160   10.36545817768568
H        -0.21904831177119    2.62529686799711   10.95387602751946
H         1.25837047045927    3.45078437735787   10.40918645087875
C         2.91777040018383    3.01434906979626    7.70836587324475
C         2.58651727677146    4.32923417952962    8.00478201814374
H         1.66760700381774    4.57044218752208    8.51960098207405
C         3.43817891581307    5.35692337653814    7.63360998715975
H         3.17639194641064    6.37815989745577    7.86997680521468
C         4.61685784053155    5.08184445522503    6.96346000340374
H         5.27632968112357    5.88806863929915    6.67941806464757
C         4.94947113855724    3.77097871130153    6.65701804096464
H         5.86712950542636    3.55286646362885    6.13223399352939
C         4.10562174663671    2.74453702858159    7.03007009407033
H         4.35238584358811    1.71293590118191    6.80153594668096
C         1.31857155042250    1.17378591409968    6.41784599853936
C         0.73083176108997    2.21110574043363    5.69440669846457
H         0.66683081405923    3.20290052061047    6.12187953731284
C         0.24417218129978    1.97959965430433    4.42328960018507
H        -0.21480786024482    2.78559317168940    3.86923897053583
C         0.34515365963751    0.71673305537423    3.86027795552271
H        -0.04207056127104    0.53702010199059    2.86827648400026
C         0.94573858725694   -0.30896067062094    4.56814960170562
H         1.03092192429644   -1.29302072459007    4.13309999929791
C         1.43804551360945   -0.08370294459576    5.84299832621440
H         1.88957427522078   -0.89488101731449    6.39103933020458
C         0.75766625607522    0.28254597597779   12.25792118077352
C         1.38082945702527   -0.35207965959824   13.33013969632001
H         2.44506325164395   -0.21911968000808   13.48100687456871
C         0.64499449049605   -1.14356436301302   14.19030840145974
H         1.13321552745338   -1.63769088584582   15.01698482394470
C        -0.71617028445402   -1.30714776595879   13.98669450355519
H        -1.29166150657172   -1.92880869867626   14.65607320486157
C        -1.33696323081427   -0.68252391306289   12.91863454032539
H        -2.39413641700148   -0.82079147913943   12.74804112571751
C        -0.60406222725106    0.10637528647784   12.04905246223153
H        -1.09528333224127    0.55613965827753   11.19783816732938
C         2.63183926992082    2.30338861846411   12.41474501739861
C         1.87352637801023    3.10367151282957   13.26497625798707
H         0.79559931832543    3.11327773085239   13.17738857881798
C         2.49638553129645    3.87333177824958   14.22871354362230
H         1.90538148643062    4.49359160626428   14.88650569550206
C         3.87688190742520    3.84574020944332   14.35573790191424
H         4.35971301526723    4.44844736898174   15.11035199218242
C         4.63383081795545    3.04061242016301   13.52178940005158
H         5.70810407620576    3.01129523915880   13.62436249603254
C         4.01278681059397    2.26901762487915   12.55436998768837
H         4.59181224662821    1.62714963577301   11.90118413421237

