44
CSD_code = JAVCAL | q = 1 | S = 0 | Stoichiometry = C21H14MnN4O4(1+) | MND = 6
C         8.72956369159142    3.62752952643175    1.04598597184581
H         9.05904871528520    4.58534942537475    1.42846276952374
C         9.24250317104233    3.15462542164940   -0.16447968325318
H         9.95393024605556    3.75761397479060   -0.70518150852256
C         8.84020347222859    1.93054469819916   -0.64394126625434
H         9.22015252596244    1.53900512791793   -1.57489882590237
C         7.92694628634782    1.17750341134775    0.11209024383354
C         7.46304774672474   -0.11465828617254   -0.27115289741137
H         7.81792436638855   -0.52408425264930   -1.20427153026156
C         6.61309335373995   -0.81752880624760    0.51677315938380
H         6.27485349007825   -1.80006889013032    0.22617398667103
C         6.15119538260519   -0.29065581957389    1.75802336178508
C         5.30484585941053   -0.99170273412246    2.63265162789237
H         4.96045009220740   -1.98035929241969    2.37145439758948
C         4.94448888349836   -0.39813534417493    3.81925824476112
H         4.30915420211303   -0.90709815693638    4.52589006192104
C         5.40893171035791    0.88437491971089    4.12170098424756
H         5.13275924849402    1.34560021228389    5.06160492839095
C         6.56972484400903    0.99777335544360    2.15248886497564
C         7.46650236533301    1.73895772021022    1.32193534562494
C         5.48879237839930    4.98999647487109    1.29844117325433
H         6.49743097102606    5.34776496725176    1.13201044341578
C         4.46632421210665    5.44527040298624    0.48501213094818
H         4.68937484675271    6.13573474274150   -0.31337192121702
C         3.17351332418605    4.98104029091990    0.69897384072604
C         2.98187769685279    4.07264980450252    1.73481310984762
H         1.99679840233409    3.67549452954522    1.92253213925725
C         4.05899296602680    3.68924675238721    2.50991999634683
H         3.90437723357186    3.00202517482132    3.33231856549647
C         2.00305061867025    5.33050056102443   -0.18342555329100
C         7.60522612306985    5.13320735314871    3.58911863233707
C         6.00580017331052    3.85898899309644    5.00827412221496
C         8.30412877542395    2.86319266163717    4.48601560038204
N         7.85519422293523    2.95228433212642    1.77550896897340
N         6.19287723342952    1.58031625032066    3.31286761281737
N         5.30630367901753    4.12589094541387    2.30207017991837
N         1.95438738069270    6.61176140504750   -0.59624923265674
O         1.20161086955027    4.48249440277778   -0.49593400263485
O         8.04191979345997    6.18577863448129    3.68900817974545
O         5.45327398856105    4.13415970890215    5.97035295633057
O         9.18109148841975    2.47940739192313    5.10671244533095
Mn        6.92420252669358    3.47610557219574    3.51454016365537
H         1.16841186702554    6.89658565096681   -1.15976275366187
H         2.56241957501521    7.32551678599100   -0.23551503438457

