64
CSD_code = JAVCIT | q = 0 | S = 0 | Stoichiometry = C27H24CdN6O6 | MND = 6
Cd        3.03152480866272   14.61449498959150    3.88395010518468
O         4.83683047280246   13.42271578238188    3.61545210810450
O         4.79811478932477   15.26078866380743    2.54056799361243
O         6.60161216879320   14.14117364635049    2.67003669063483
O         1.83785096812292   12.84340802732140    3.32399119081398
O         0.58651038545757   14.36337194967357    4.14306286075540
O        -0.26831291279632   12.54246692422598    3.44290322498072
N         2.75978751081400   13.87227792372792    5.97569050172250
N         2.06967760942907   15.75128373002534    2.15590921467987
N         5.17368859510256   15.82884182970811    5.35295098353636
N         2.69468103979370   16.78894478918169    4.68106159253905
N         5.43240987159389   14.27196010422763    2.93467313102249
N         0.69735767610174   13.23884047075099    3.63320756983680
C         3.22599895400112   12.64307958859214    6.17236477228117
H         3.69583184554610   12.17406282889116    5.31680608644375
C         3.12111481309842   11.98482889140701    7.38745248614519
H         3.50111472391000   10.98185022090359    7.49775471214481
C         2.52239010028513   12.64727280684831    8.44681073478362
H         2.42988133833394   12.17685382898025    9.41469836265909
C         2.03163009952986   13.92339280452599    8.23531249897342
H         1.54597797388315   14.46162435240467    9.03517889033948
C         2.15042177210787   14.50581051150779    6.97527575096214
C         1.51971250170855   15.83971983613276    6.69679362709948
H         1.09151986958509   16.22676335871902    7.62301195661627
H         0.70517795831978   15.65619606109927    5.99337646482106
C         2.47645445167094   16.89204233775698    6.12558449854631
H         2.08225013794155   17.89460968616793    6.36446156571992
H         3.44638375720113   16.78004086713926    6.61346473874559
C         1.53473113735263   17.27865202827123    3.94075843018482
H         1.41844772081250   18.36815043404362    4.06504921852829
H         0.64045225776502   16.78531709228086    4.33068665296247
C         1.60217745067085   16.93208252908619    2.47686016400605
C         1.12476698033259   17.84280894178490    1.51257894618721
H         0.74296643312792   18.80276590629451    1.82652770056479
C         1.15299927116513   17.49141760392785    0.19163649307742
H         0.79695627677485   18.16650474891511   -0.57377461594368
C         1.65619233074778   16.22874283373426   -0.17827076284837
C         1.72231822853394   15.78949463464184   -1.51579057072150
H         1.37299112767163   16.44971459449199   -2.29663345350388
C         2.21855670360614   14.55075746029626   -1.81100413833810
H         2.26894614575772   14.21528134067639   -2.83612752348999
C         2.66285378320158   13.70059049543077   -0.78479418109580
H         3.04551301067699   12.72376312900083   -1.03892024591011
C         2.61313958919304   14.09422580564326    0.52418911518896
H         2.93687602459312   13.43565418672724    1.31977514502875
C         2.11294073860323   15.36922507212659    0.86066475153684
C         3.86279299813382   17.57683781397574    4.30028042733384
H         3.80547794605641   18.59390521228396    4.72926902309766
H         3.87303305401224   17.67032423988140    3.21018319203971
C         5.17796951201077   16.95521502778303    4.68795665261756
C         6.36290711807759   17.61028799263688    4.28632952887726
H         6.29616954482289   18.53675445606765    3.73651243174032
C         7.56785009324148   17.03725757278107    4.57277652181773
H         8.49538494044403   17.49337376592490    4.25766122094143
C         7.60078617481675   15.81985854407296    5.28343925631064
C         8.79568637239598   15.15070636634797    5.60795896769722
H         9.73412831252636   15.58516652925274    5.29538678598782
C         8.76150491785408   13.96874596948953    6.29350698528711
H         9.67826751340129   13.44997437970365    6.53104917541175
C         7.53440901928095   13.41670688458870    6.69106605726538
H         7.52669220446485   12.48267335025275    7.23329130019191
C         6.35618144629931   14.04279456454572    6.39265807734197
H         5.40691600941709   13.62324495170578    6.68380506978659
C         6.35752432847949   15.25030672609624    5.66805388703460

