147
CSD_code = JAVDEQ | q = 0 | S = 0 | Stoichiometry = C62H78Cl2N4Zr | MND = 6
Zr        6.65822912303236    6.65817074324109   -0.00001320956063
Cl        8.11451821601053    5.19903297675316    1.18829518258375
N         7.48859365332084    8.42334442588589    0.89572595628711
N         5.04782895753702    5.67312670215847    1.02159572884470
C         7.17939241282038    9.42743839372589    1.82824151830724
C         7.09801662468515    9.04617529356015    3.18475312962912
C         6.84727832839029   10.01554064194626    4.14199916267154
C         6.63177351042060   11.33302045635652    3.77968985168255
C         6.62032932761972   11.68042503183522    2.44434393367283
C         6.88416702881226   10.74894163244444    1.44896090021131
C         7.30897036844050    7.59646198727746    3.56858906955401
C         6.62126810563405    7.20656177367772    4.87764798940005
C         8.80765373729096    7.28732123071548    3.66969545213552
C         6.76121581467901   11.17319318027151    0.00348901265714
C         5.29389767653124   11.47326493158203   -0.32035105885796
C         7.63226141363719   12.39120897826718   -0.31357090692293
C         8.47239085957935    8.47247987226074   -0.00005902641586
C         9.52294697773788    9.52297192474547   -0.00002421947677
C        10.02742779551825   10.01912344846568    1.20032268943468
C        11.00538957508200   10.99665409679814    1.19714297105980
C        11.49338992404429   11.49348794967893   -0.00002675707363
C         4.46100069028893    5.56691345541970    2.29348432013153
C         4.58457256367131    4.41596477494022    3.09187849013168
C         3.94423065114963    4.39240358941537    4.32376521799813
C         3.20903379990884    5.46882940125565    4.77617248634430
C         3.15445229501951    6.62600098303302    4.02025743260630
C         3.79030225728960    6.70436280904793    2.79209690897262
C         5.45170718767509    3.24163866791682    2.70004556456477
C         6.67788883351404    3.18060070852749    3.61696664880142
C         4.68436513427955    1.91832252309250    2.75449676611150
C         3.75750812436088    7.97485131096274    1.96856008791837
C         2.64456235743571    7.89544322572389    0.91642567746092
C         3.57338530512365    9.24017871948963    2.80739098911968
C         4.84406204027192    4.84393225198297    0.00002110170504
C         3.79352215857890    3.79350703876473   -0.00002023169361
C         4.02942802687812    2.55712624705941   -0.59761825719652
C         3.04989844675844    1.58117762629219   -0.59562134589088
C         1.82314671689859    1.82316695433166   -0.00002434193554
H         6.81806180395857    9.74537431330781    5.18543944122189
H         6.44891165580946   12.08022964761599    4.53741669567046
H         6.40273609020810   12.70043463256595    2.16714074084145
H         6.87783569266015    6.96928375103628    2.76383611319108
H         7.13925197941258    7.62944123936595    5.73577075852840
H         6.62970301203624    6.12410785800453    4.98067774955453
H         5.58523520651777    7.53494657458156    4.88916015670753
H         9.27780209412618    7.93677585266360    4.40738130188539
H         9.29830109017665    7.42702212183285    2.70886131887136
H         8.95576710935065    6.25205093668284    3.96687539177671
H         7.06976720849629   10.34572498332628   -0.64292316371914
H         4.70007269939079   10.56804753279335   -0.22763393808869
H         5.20832611516030   11.82818112907606   -1.34475383323972
H         4.89437741635298   12.23368941051342    0.34709961902808
H         7.23270818920044   13.28500730814038    0.15922397276932
H         7.65614740703633   12.56031587857317   -1.38799357602622
H         8.65124215021590   12.24565939990961    0.03574432396458
H         9.66356503694728    9.63533306954765    2.14001058140334
H        11.38746351286712   11.37067505880316    2.13515743515260
H        12.25690436638176   12.25703101591512   -0.00003064462879
H         4.02230674258829    3.51083106662503    4.94128783612225
H         2.69904376786510    5.41805179553638    5.72657187684666
H         2.60819211878389    7.47557489889798    4.39763558743260
H         5.82047091822529    3.38962507346203    1.68032315757887
H         7.29624361362691    4.06189953265517    3.46994567255168
H         7.27600590329608    2.30545441335739    3.37391899525420
H         6.38136085627332    3.12145913825824    4.66191623056110
H         4.47639531266535    1.63492019111926    3.78333714047319
H         5.27686508839910    1.12703896937432    2.30022713258093
H         3.73956744619074    1.99119153708146    2.22194618468272
H         4.72846175806843    8.05997636218311    1.44240776099663
H         2.82832351180223    7.08191645958251    0.21795679024175
H         2.60644601931665    8.81846033517107    0.34320009373124
H         1.68014430201883    7.73974834154424    1.39877922662746
H         2.55494478736185    9.31989740003174    3.18145230675721
H         3.77375999088738   10.11341884919930    2.19121368231719
H         4.26393232280035    9.25821946919864    3.64652885619250
H         4.98291699053585    2.35152746416738   -1.05733308059603
H         3.24749065132935    0.62745937263570   -1.06159085973299
H         1.05961314069855    1.05964505255724   -0.00002921838777
Cl        5.20016694471912    8.11594663946524   -1.18805210881536
N         8.42328255859602    7.48870149115116   -0.89585410448995
N         5.67326037063985    5.04766375728572   -1.02154745703781
C         9.42743873025478    7.17944419162370   -1.82828274607046
C         9.04620017341296    7.09801658278412   -3.18478987731272
C        10.01557737722914    6.84722373037131   -4.14200477379258
C        11.33305552137955    6.63174584568514   -3.77966417782276
C        11.68044779587225    6.62036974764949   -2.44431410834704
C        10.74893970869877    6.88422162035106   -1.44895155499817
C         7.59647586949558    7.30896168645818   -3.56859505049741
C         7.20658980423171    6.62120197592983   -4.87763176323840
C         7.28721596574753    8.80762866025358   -3.66959102307465
C        11.17320878465451    6.76126920799327   -0.00348125335932
C        11.47334933032803    5.29396698356659    0.32036114793853
C        12.39123135036877    7.63229625129786    0.31360305509178
C        10.01909790838759   10.02745216620644   -1.20036725708725
C        10.99658094390508   11.00545765079495   -1.19719329474108
C         5.56695213435724    4.46093406854028   -2.29347174890150
C         4.41600052187723    4.58458023926824   -3.09187246135619
C         4.39241631883098    3.94424648959186   -4.32376757411732
C         5.46882183948020    3.20902533858292   -4.77618605898193
C         6.62599841696376    3.15441356373994   -4.02027797688124
C         6.70437715318161    3.79024055757814   -2.79210904154958
C         3.24167096026446    5.45172773658645   -2.70006572142079
C         3.18061662809790    6.67788381194829   -3.61701576131099
C         1.91834042013119    4.68441352877259   -2.75454474882771
C         7.97484401626925    3.75745619224903   -1.96853652393649
C         7.89540494518721    2.64450456040575   -0.91641353372098
C         9.24017607252515    3.57334667513117   -2.80736754169654
C         2.55713468291938    4.02944615195126    0.59755999785282
C         1.58117241102246    3.04992465764270    0.59556938080541
H         9.74544110577508    6.81799237176485   -5.18545179323100
H        12.08027168844856    6.44881821118759   -4.53737000278975
H        12.70044815508108    6.40275311537856   -2.16709063854998
H         6.96932363055361    6.87781056730361   -2.76383256019525
H         7.62951206940208    7.13918568948754   -5.73573246539080
H         6.12413861450873    6.62970489181244   -4.98068508122416
H         7.53492912706642    5.58514841452776   -4.88914803958154
H         7.93640662359572    9.27775781566691   -4.40751935578513
H         7.42717957412497    9.29836281329703   -2.70882834255706
H         6.25184215456270    8.95565240676333   -3.96646751906628
H        10.34574984816843    7.06979223787347    0.64294083489757
H        10.56816935151351    4.70011455148716    0.22759163358947
H        11.82819078275105    5.20839859526581    1.34479052002977
H        12.23381794762087    4.89446740645696   -0.34705166230650
H        13.28504342534502    7.23271487687656   -0.15914668333082
H        12.56029969782480    7.65619754381564    1.38803226178545
H        12.24571670219480    8.65127394292610   -0.03573356173418
H         9.63530807612890    9.66358843629590   -2.14005512961113
H        11.37058784035620   11.38753579609980   -2.13521224107755
H         3.51083980315581    4.02233741559107   -4.94128574420858
H         5.41802596528752    2.69904093505310   -5.72658847818411
H         7.47555663152459    2.60813742689063   -4.39766522453174
H         3.38963847128879    5.82051109498289   -1.68035640197256
H         4.06192014529430    7.29621825042275   -3.47001470655405
H         2.30549756096858    7.27602603498190   -3.37393897433271
H         3.12145618597083    6.38135866552796   -4.66196642254973
H         1.63494439912408    4.47644516471181   -3.78338880893731
H         1.12705886850701    5.27692325973165   -2.30028485980048
H         1.99118965950991    3.73961530332808   -2.22199317103211
H         8.05995130494211    4.72838813210232   -1.44232480348022
H         7.08184501613900    2.82824469002376   -0.21796523693457
H         8.81841883729958    2.60635535037382   -0.34317872095375
H         7.73971633878107    1.68010699314868   -1.39880586545463
H         9.31990130940628    2.55491525151636   -3.18145270583152
H        10.11340667480337    3.77370724670421   -2.19117321974416
H         9.25822937110677    4.26391126832698   -3.64649098734563
H         2.35155555477479    4.98293479176365    1.05728372843863
H         0.62745472909978    3.24752788386990    1.06153538916577

