129
CSD_code = JAVFES | q = 0 | S = 0 | Stoichiometry = C56H68N4Zr | MND = 6
Zr        4.12190397244265   12.36704035786419    6.10915788372739
N         2.41547467791360   13.87320110819830    6.01473779738941
N         4.00827007455631   13.93601263294203    4.44369699789590
C         1.33301070276608   14.38247211630365    6.75302333332247
C         1.43384657996462   15.56317292202096    7.51001702417833
C         0.32030398197223   16.01733906205824    8.20221424457668
C        -0.87799509857121   15.33280959359527    8.16818062580732
C        -0.96420845685218   14.15121408256474    7.45700012650285
C         0.12416770471967   13.65878830801162    6.75497378590760
C         2.73618149909809   16.31983993123211    7.64213756420836
C         2.59946725164872   17.77239481636414    7.17869339568824
C         3.20962307032088   16.28089294080126    9.09933792772704
C        -0.00308296837279   12.36107513583048    5.98482961660063
C        -0.56950448847983   11.24592835223121    6.86938766096161
C        -0.89226132716312   12.53592182016463    4.74824674864705
C         2.90833371091274   14.48466648478520    4.95033541775970
C         2.32439361064365   15.72138867643977    4.35968970768802
C         0.95043875050876   15.89887446831457    4.22439785733962
C         0.44387433338211   17.05473258572671    3.65801139659521
C         1.29828354366534   18.05116939007997    3.21804247186765
C         2.66601245114629   17.89103285417197    3.36244725282539
C         3.17497277062978   16.73895554242234    3.93223280791377
C         4.43293765716368   14.22126643497650    3.13938353558478
C         3.61149810867900   13.94133137409551    2.03374734315093
C         4.09775540374553   14.17103627424819    0.75604166689607
C         5.37105852730567   14.66835851797691    0.54994060603115
C         6.18030988556519   14.93876443858368    1.63865444201791
C         5.72794363850852   14.72229589883664    2.92970008766129
C         2.22784715212396   13.38680324786278    2.20485902725533
C         6.60593753900855   15.06424506075948    4.10018025105141
C         5.26466204538914   13.51429342324029    7.66078892338861
H         0.38962343908604   16.92721856839991    8.77902330487838
H        -1.73717493361337   15.71105927652169    8.70203437051843
H        -1.89835594032667   13.60999153806098    7.44353551946424
H         3.49488274354089   15.82287825257658    7.02589047009959
H         2.18430343383018   17.82382097997755    6.17589197857851
H         3.57372030951295   18.25700474197501    7.17547959870016
H         1.94672189079051   18.33015798720976    7.84593729775640
H         2.53635172779443   16.84607442288274    9.73945478967720
H         4.20488382258378   16.71204888114409    9.18334261686476
H         3.24123073784022   15.25526656146145    9.46017629312885
H         1.00795695839545   12.06909382462238    5.65814095242494
H        -0.03047850500178   11.19254774880962    7.81134073481578
H        -0.48017644184454   10.28590650582835    6.36507535517266
H        -1.62150238009721   11.41533355353409    7.08598433035233
H        -1.84242664004113   12.99098450625868    5.02174957170244
H        -1.09922833189529   11.56986867261672    4.29186290606790
H        -0.41068268729057   13.16219668642095    4.00118173731097
H         0.27232147765379   15.13261315474099    4.56171228931485
H        -0.62501756147894   17.17551756419059    3.56015956241511
H         0.90022951406243   18.95065265157266    2.77222913145448
H         3.33999960073107   18.66860557313278    3.03448263525672
H         4.23958128827363   16.63537409664964    4.06527587222681
H         3.46342699959240   13.94950059911676   -0.09039013148326
H         5.73206200555149   14.84230030145820   -0.45295745969343
H         7.17687394130600   15.33033104517495    1.48830978190031
H         2.14111342601008   12.83053973768918    3.14017124516134
H         1.99079212703159   12.71741045586742    1.38035804692855
H         1.49310297037572   14.19422402182570    2.21129761997220
H         6.64280107460561   16.14634303555127    4.24314319818240
H         7.62370007426052   14.72284140307666    3.92223941294595
H         6.21623324856618   14.60609691439486    5.01453851768898
H         5.73013914566395   14.45702127782939    7.33675558710268
H         6.05533625717497   12.89408466639914    8.10762139638839
H         4.57481423098060   13.76715724004894    8.47808309152525
N         5.82948021343718   10.86191604429349    6.01468388620985
N         4.23678246695408   10.79887724088701    4.44353043652681
C         6.91188981271078   10.35268343777028    6.75312934511688
C         6.81108198822649    9.17193117426182    7.51007898073276
C         7.92466351509013    8.71769105222183    8.20219302659884
C         9.12299707441873    9.40216096181552    8.16809912665745
C         9.20920342905007   10.58378409605713    7.45697345757960
C         8.12079760644667   11.07627941858979    6.75503005484436
C         5.50878646684229    8.41519352782437    7.64211627274076
C         5.64551877036299    6.96262485291468    7.17869294084957
C         5.03542663328146    8.45407857861665    9.09933548919165
C         8.24811323392812   12.37394821072773    5.98482008218810
C         8.81445650942485   13.48909263041092    6.86944840365200
C         9.13721804596871   12.19909735455512    4.74818246006424
C         5.33670351902233   10.25034673041247    4.95025344687022
C         5.92063420684720    9.01355842144468    4.35975958805176
C         7.29458258210297    8.83608630562505    4.22442839532910
C         7.80113483960674    7.68026188865287    3.65797867249908
C         6.94671745636780    6.68383077103130    3.21801305760863
C         5.57898600318456    6.84395303267968    3.36246421132712
C         5.07003779189117    7.99601203720711    3.93229663026628
C         3.81214261242050   10.51350154284627    3.13928097459578
C         4.63350800899361   10.79363174604511    2.03366989008486
C         4.14720627196725   10.56405026064577    0.75597273839794
C         2.87390651985204   10.06670242051896    0.54990156483787
C         2.06469036919138    9.79621984391876    1.63863004482725
C         2.51710264881656   10.01257034760203    2.92966233150654
C         6.01712755650165   11.34823638052181    2.20483998699426
C         1.63908434823958    9.67069921207210    4.10014725462949
C         2.98061393056048   11.22067172153327    7.66116527339831
H         7.85532514140091    7.80784320613940    8.77905640855218
H         9.98213739229340    9.02397360136301    8.70206226101353
H        10.14333932529397   11.12502817354966    7.44357662545176
H         4.75007461534297    8.91218115742592    7.02591306867056
H         6.06069272376087    6.91122662172393    6.17589867659040
H         4.67126992842685    6.47801070815514    7.17543603314435
H         6.29825259958664    6.40482825696861    7.84592922162988
H         5.70869268874839    7.88888353289915    9.73946074894737
H         4.04016810893173    8.02292591050659    9.18330097452541
H         5.00378554507239    9.47970491636627    9.46017037629024
H         7.23706938374892   12.66592320581004    5.65807951819134
H         8.27545391292812   13.54251446620923    7.81142607954932
H         8.72518830127164   14.44910929303193    6.36510832651825
H         9.86644192685440   13.31966069070323    7.08603736974601
H        10.08735184571264   11.74403148563613    5.02175506913056
H         9.34424288317194   13.16514928654720    4.29181330977935
H         8.65568231934115   11.57279797453621    4.00109783305815
H         7.97270601994953    9.60238069724401    4.56165977948804
H         8.87002689953665    7.55945480156739    3.56017509397035
H         7.34477367944078    5.78430120756077    2.77229339348053
H         4.90499236199306    6.06637274004784    3.03452909487042
H         4.00542723325471    8.09965380618604    4.06526800631810
H         4.78156910451884   10.78550682876232   -0.09045681041164
H         2.51291534987303    9.89269804279623   -0.45298575869608
H         1.06814303205989    9.40461188633462    1.48832556123717
H         6.10386456915967   11.90445298029111    3.14019346147405
H         6.25416242061941   12.01767837980160    1.38037173352925
H         6.75188484813172   10.54083032858867    2.21124857761496
H         1.60215053322940    8.58860756816918    4.24306986446342
H         0.62132701933133   10.01216657777768    3.92230572074730
H         2.02885485208549   10.12879370953333    5.01447538182700
H         2.51512201507735   10.27818435378336    7.33642882086436
H         2.18978404131542   11.84121879009393    8.10738944520306
H         3.67051761901285   10.96771927087593    8.47848955622492

