42
CSD_code = JAVLOI | q = 0 | S = 0 | Stoichiometry = C15H17F3N2O3PdS | MND = 4
Pd        2.39137489383017   -0.06288988529931    1.90070709618026
S         1.49985753581321    0.37892923596069    4.40094253544877
O         0.42302043193472    0.18567510342348    3.45370824958709
O         1.68424332565124    1.72665761405158    4.85889717866952
O         2.73169013820827   -0.33974388679197    4.11180307610160
F         0.73264972222532   -1.87289055106586    5.50101963118735
F         1.76269646822646   -0.59478775462904    6.90150946483435
F        -0.28537018492744   -0.17775361653777    6.36512118146250
N         3.07922317081126    1.90012666999215    1.74212804301344
N         1.78345663850964   -1.96001203327289    2.03141731223748
C         3.03141633507097    1.18432948847899   -0.57963748362658
C         3.03570394525103    1.47103792916550   -1.93540818023544
H         3.54629106961349    2.35159059162669   -2.29982047585236
C         2.38731534860052    0.62603578963533   -2.82027882740994
H         2.38938356208371    0.84482431013195   -3.87770749858563
C         1.73786992846383   -0.49663394635994   -2.34115886390325
H         1.23361333874861   -1.16067419644370   -3.02840233233065
C         1.72713751416736   -0.77761078066651   -0.98091931028320
H         1.21233015397339   -1.66872626022120   -0.64228302837011
C         2.37601316814060    0.05312600051849   -0.07570225057839
C         3.75130427049356    2.03460148874861    0.43289715988211
H         4.77856633452738    1.66250305855616    0.53430321511381
H         3.79663446493834    3.09158110233586    0.13106109203607
C         1.87686507751231    2.74124269488867    1.76934719061984
H         1.19895787554382    2.43924364646470    0.96422813333322
H         2.14566992964973    3.79824257010251    1.63948184114732
H         1.36907461638584    2.62268429545096    2.72940905979431
C         3.99058939455289    2.29749178578224    2.81689597148197
H         3.46283328063540    2.27995518752182    3.77149021485925
H         4.37344263658167    3.31143951773428    2.64152909076079
H         4.82859796421059    1.59619351601803    2.86558765086077
C         2.60782274239729   -2.82644250262720    2.61940428150461
H         3.66703975234898   -2.57881136936361    2.59961533917462
C         2.14887033173195   -3.98235056657750    3.22747872857689
H         2.84422474213213   -4.65636864187340    3.70183971726059
C         0.78754371245547   -4.24526892376788    3.22724631764626
H         0.39731721385384   -5.12903588975754    3.70839440973231
C        -0.06121064036846   -3.34793213515293    2.59839265744055
H        -1.12616364202746   -3.51484817106765    2.57362632620528
C         0.47589461234075   -2.21486009510943    2.01094181689755
H        -0.15391157799721   -1.47945503874774    1.51800047857353
C         0.89022040401559   -0.59441535042946    5.89039378956167

