35
CSD_code = JAVLUO | q = 0 | S = 0 | Stoichiometry = C14H17ClN2Pd | MND = 4
Pd        8.48371994827110    0.70185689441301    4.71717482222593
Cl        8.92055393790565    2.06585222767356    6.58654125297979
N         8.74696495256864    2.20965235071325    3.34989409077016
N         8.27823364482667   -0.72300799950429    6.00846949363844
C         8.26867213250929    0.31468078265745    1.88876148937753
C         8.28044549102153   -0.29441746663564    0.64405466630813
H         8.26230888143236    0.30889208885617   -0.25391419010556
C         8.31345466836892   -1.67564300730666    0.55344431406140
H         8.32250914976173   -2.15433417731202   -0.41500067863834
C         8.33579483235017   -2.43636496346475    1.70814353309858
H         8.36020515246938   -3.51529449457375    1.64152326691492
C         8.33130987520711   -1.82285581252748    2.95338512685455
H         8.35041344841300   -2.44970607581042    3.83922154731948
C         8.29068946541917   -0.43620490041117    3.07343463373211
C         8.18050706226161    1.81168762851478    2.04674398967611
H         7.12197254523710    2.10014603328938    2.02997766560883
H         8.68801201999723    2.34553921414037    1.22926083625321
C         8.21014244103093    3.50677185402742    3.76140732671408
H         7.12797707225341    3.43031377200246    3.89337470375308
H         8.43051470745842    4.27727293460982    3.01087715859707
H         8.65186191035871    3.79493562416042    4.71660300063700
C        10.20891252501903    2.28988053410985    3.25950016739438
H        10.62018847169237    2.49531439684672    4.25398868457563
H        10.60766041182125    1.33840352613576    2.89003406519331
H        10.51429069328019    3.09322782172802    2.57467745562002
C         7.10111747591851   -0.92302022331216    6.60078215686817
H         6.24043643201836   -0.44042059277627    6.14056625095554
C         6.97123896771879   -1.69233949932065    7.74325927973620
H         6.00213378028907   -1.82366453027444    8.19804415788278
C         8.10276927471486   -2.27689012553210    8.29230540671556
H         8.03548202685127   -2.87678042944005    9.18686788211660
C         9.32417933871237   -2.06686194195834    7.66921531231345
H        10.23092157565355   -2.49543165246615    8.06588828508347
C         9.36919465008407   -1.28397367071158    6.52987531777563
H        10.30811103710457   -1.08471612054257    6.01541752798830

