96
CSD_code = JAVVAE | q = 0 | S = 0 | Stoichiometry = C43H47ClN2OPRh | MND = 4
Rh        0.44504983208460    3.13097858530428    3.09414064296287
Cl       -0.46661195117615    4.87091438683539    4.24880275754188
C         0.93087343752823    1.66379800037597    2.13243443767629
O         1.11058836784086    0.68647225538457    1.53897204652029
C         0.79932886961706    4.45562766244366    1.61284645677342
N         0.02600511491209    4.67660799039527    0.55358699061102
C         0.47398482151984    5.79804527003664   -0.26530052433793
C         1.70437472192545    6.29328833028450    0.50041126777984
N         1.77081807251906    5.36652404916431    1.62784221250249
C        -1.07288326090567    3.86197382809097    0.16854069501578
C        -0.85275436549823    2.76221788425078   -0.66304298297743
C        -1.93497930121986    1.97212681356229   -1.02087558074228
C        -3.21827839000608    2.25660838978556   -0.57824035810785
C        -3.41291780886863    3.36628663362320    0.23033532601100
C        -2.35862433545033    4.18282170415625    0.61290119269704
C         0.51262540044886    2.44019466820042   -1.19377504872858
C        -4.36462354258033    1.36777733244079   -0.95479725476435
C        -2.59239430981896    5.37351550988425    1.48632752791946
C         2.82272649826540    5.42502313328487    2.58143108009741
C         3.86375927913730    4.49258859785074    2.50308516910164
C         4.88842775685088    4.55401679194101    3.43313726170133
C         4.91471291619950    5.52915865450876    4.42072439612815
C         3.88504906951220    6.45483343580261    4.46427092835710
C         2.83206904404641    6.42297211689884    3.55935539857702
C         3.88529563491832    3.44583932410011    1.42970225420641
C         6.04438579562527    5.57038132216799    5.40546320579480
C         1.72968608353244    7.42963697798070    3.65797470552633
P         0.03567598994639    1.95992303534940    5.00779901544343
C        -1.67247566576702    2.26060435832169    5.58154390835478
C        -2.73065743883343    2.07279445870355    4.67840918695808
C        -4.02062140345227    2.37560041940337    5.09134791128014
C        -4.27223332896269    2.88024269272892    6.35487287743103
C        -3.21965642566978    3.11991046914123    7.21966315972797
C        -1.92734305776630    2.82056655624137    6.82899568327604
C        -2.47949526782392    1.61844177668152    3.27664404057501
C         0.21536926943706    0.13710779297209    5.04107404653039
C         1.47531401512212   -0.43031091654782    4.81521456833646
C         1.58761556666580   -1.81429721062257    4.76762528795520
C         0.48734716551831   -2.63385743005882    4.93898092849690
C        -0.75550402394815   -2.07089055931978    5.17122288774953
C        -0.88569483964507   -0.69622985611591    5.21950023012177
C         2.70538481533445    0.40925376238915    4.66325645524540
C         1.11254687277759    2.44903301049022    6.40771758620439
C         1.15482300818359    1.84063275672420    7.66875364944485
C         2.05592409774889    2.33068214986520    8.60747547236370
C         2.90334949251244    3.38639114138813    8.32358840001646
C         2.87591181857478    3.96922893679813    7.06896557986118
C         1.99222256197036    3.49177487406835    6.12164675732969
C         0.29980316307892    0.66809604523588    8.04366694455199
H        -0.31052036677611    6.55709164312741   -0.33583382765728
H         0.71147759670210    5.45627299615137   -1.27818511174788
H        -4.40947372218598    3.60417153434682    0.57486842658187
H         1.58915384129628    7.32195447098416    0.85009264286720
H         2.62573564199208    6.23383011312356   -0.08952052678869
H        -1.77026907689058    1.11494614935940   -1.65799336733715
H         1.29200279777718    2.82368894384261   -0.54027784352640
H         0.63744312564036    1.36409300658238   -1.28307877785390
H         0.64225778981335    2.87754379579116   -2.18528357140139
H        -4.37434094053525    0.48497955723820   -0.31488856265721
H        -5.31410462174723    1.88413907645384   -0.83679484257489
H        -4.27115119152506    1.03092691511384   -1.98498378358693
H        -3.63663439099368    5.43502875031935    1.78011971593541
H        -2.32429952676181    6.29502352224519    0.97038041645529
H        -1.98211699475996    5.30824589122799    2.38843334138703
H         5.68964958338303    3.83034153805321    3.38374743089669
H         3.89185251766358    7.22314435131239    5.22491260898885
H         3.66475596313417    3.87787241776885    0.45470841337426
H         4.85945139466918    2.96591357556463    1.38585939342005
H         3.13283435179353    2.68326537909904    1.63757567279215
H         5.90744351327079    6.37374373626654    6.12524118581478
H         6.99079516570526    5.72702302467809    4.88880668105265
H         6.11280886131821    4.62543136121274    5.94336448396277
H         1.81168078529321    8.18177013041547    2.87262805744705
H         1.76953451944305    7.93935313714034    4.61699155226327
H         0.76405955386218    6.93311091835875    3.57270630613106
H        -4.84075796367634    2.22716254893035    4.40225123392702
H        -5.28512760970898    3.10893978530646    6.65325608289612
H        -3.40037457018006    3.54942400457144    8.19418895277744
H        -1.10655163038304    3.04787289854835    7.49367086163976
H        -1.82877951047333    2.35623541601594    2.77102264308065
H        -1.96773428028579    0.65574937736137    3.24562867467135
H        -3.40812562073117    1.54171858166880    2.71579913720752
H         2.55921119489622   -2.25531221145053    4.59233762508038
H         0.59964042159604   -3.70727043062248    4.89453884469927
H        -1.62210422670547   -2.70002445619286    5.31354472856485
H        -1.85713152000878   -0.26399055836027    5.41783728160318
H         2.47859149963271    1.35517111718501    4.16400123788723
H         3.46055116295967   -0.12220365780519    4.08730892047000
H         3.12463498094539    0.64260782218275    5.64313847131859
H         2.09015287571201    1.86944442892194    9.58520115260453
H         3.58559138536330    3.74696012216265    9.07999727905347
H         3.53485514489378    4.78812286871427    6.82627200577625
H         1.97741242069376    3.93671883582579    5.12854411052338
H        -0.66426568568697    0.69537181118338    7.54450874671036
H         0.13729892153754    0.64798508817632    9.12001704443944
H         0.79928660372413   -0.26011724107446    7.76162006841108

