71
CSD_code = JAVVUX | q = -1 | S = 0 | Stoichiometry = C36H30CuI2P2(1-) | MND = 4
P         8.67978659343589   11.31977961478800    0.53102947594530
C         9.55077851846222   12.07799156689719   -0.90077323438116
C        10.02983945118444   13.36786870187059   -0.67845524221410
C        10.69416802845686   14.05236161533517   -1.67737328497430
C        10.89183202266452   13.45400848582497   -2.91115519917785
C        10.41851550931167   12.17190621471595   -3.13801557216490
C         9.75038433596796   11.48376511979381   -2.14201074089055
C         7.04354217796640   12.02024893870565    0.09903319171364
C         6.46998017066576   12.93845360201567    0.96853290475800
C         5.25264687423443   13.52126809911191    0.66499661946289
C         4.60542024423581   13.19296334925645   -0.51270613228901
C         5.18121015978770   12.28839087382593   -1.39183872864732
C         6.39769826742802   11.70716177859060   -1.09333426300316
C         8.52315152170284    9.59417251649102   -0.00715344967112
C         9.68513865848626    8.90157782821601   -0.34999443777187
C         9.62603998620827    7.56558450163962   -0.69206627569203
C         8.41522828312559    6.89260827024807   -0.65014324720885
C         7.26823015362952    7.55993749116568   -0.25446087562637
C         7.31679216075330    8.90355589018462    0.06788164126896
Cu        8.64659536300365   11.44575644641751    2.94019262155575
I         9.90572066231111   13.62180726587682    3.38100116262897
P        10.24825427978043    9.70756340564022    3.03785812767985
C        10.34580041858220    7.93265667542940    2.60807263551204
C         9.14666353370084    7.22118838743005    2.66003507125385
C         9.11070886268856    5.88178118502932    2.32744931023462
C        10.26590350346728    5.23905063937999    1.91310226872802
C        11.45063450085663    5.95014407955428    1.81836802684717
C        11.49426692158480    7.28936340229158    2.15842982132231
C        10.29049948954538    9.60624286457999    4.85899751157316
C        10.84029374257067   10.67973415999413    5.56044323629082
C        10.78475100313307   10.71703181475992    6.93935197393132
C        10.17311730157114    9.69003411407411    7.63972748194196
C         9.61512211592151    8.62728121028300    6.94961831696396
C         9.66607220627514    8.58493188754742    5.56871588849212
C        11.95828573300704   10.25984324801566    2.70868495476924
C        12.15208516858363   11.12582332605200    1.63997943483671
C        13.41402425544737   11.60313281342725    1.33758796634171
C        14.49647408061606   11.21350929564559    2.10663231307854
C        14.31274985975549   10.34968826184240    3.17586159256616
C        13.05151704510613    9.87524220677723    3.48119696968835
I         6.51809521007523   10.16842192598682    3.51934725782321
H         9.88487111376945   13.82995897141321    0.28915185625722
H        11.06247924634481   15.05120106750714   -1.49096946242534
H        11.41455014847005   13.98381622327741   -3.69581559026066
H        10.56874440350926   11.70319582994871   -4.10191393959936
H         9.38678051994669   10.48343021706549   -2.33486126947477
H         6.97252023800190   13.18892503543712    1.89290746972136
H         4.80902909545317   14.22664619681771    1.35248058287595
H         3.65033809073244   13.64110124425723   -0.74994641419378
H         4.67742135436830   12.03603135171359   -2.31551346641553
H         6.84804146953400   11.00417068231585   -1.78197672849556
H        10.63640796556681    9.42152142668158   -0.35924057784179
H        10.52852863670072    7.04202059368938   -0.97677003844447
H         8.37169936799029    5.84460043113800   -0.91228631091252
H         6.32741750146454    7.03123385121373   -0.19251255922536
H         6.41923859813287    9.41516028176317    0.38489938377488
H         8.23435511163192    7.72699215508487    2.94595328576442
H         8.17656869886929    5.34068032802178    2.38271338096227
H        10.24108136472892    4.19019445630184    1.65028535417640
H        12.35147909225758    5.45648431438514    1.47698276332974
H        12.42545120257197    7.83302526651789    2.07403554020633
H        11.30664015618739   11.49387095421474    5.02350578938346
H        11.21150139464028   11.55830778435609    7.46719991678578
H        10.12355595142792    9.72252715676159    8.71940543027653
H         9.12684535064644    7.82692364552307    7.48862702761677
H         9.21787379866965    7.75278301005138    5.04504418024447
H        11.30056507646454   11.44226225808415    1.04837109463499
H        13.54686317925824   12.28564563276055    0.51007073576443
H        15.48532645387552   11.58765342779245    1.87992598145074
H        15.15933210681850   10.04850257578872    3.77843730111417
H        12.90757493662845    9.20940055537365    4.32256218946192

