78
CSD_code = JAVVOS | q = 0 | S = 0 | Stoichiometry = C34H35ClN2O4PRh | MND = 4
Rh        7.89836235369184   15.14243000612183    1.39196772341521
Cl        6.90863714029843   16.39207613328261   -0.20633402796890
C         8.65312874768424   13.99175729510314    2.59246263797576
O         9.12646081257812   13.20740401594128    3.29402294408001
P         8.92435441869149   14.31450638799605   -0.43268455465816
C         6.94976044635833   16.20223617723594    2.82122875963206
N         6.92951448443689   17.53022999129486    2.91647847214056
C         6.14805880348498   18.00702397293468    4.05698027901152
C         5.50875023395489   16.72135600993731    4.58110031827708
N         6.18234056415793   15.69580820084281    3.78784234370935
C         7.65449902526566   18.44647660409863    2.10983459155383
C         9.04928057390072   18.48158552260474    2.18114516853490
C         9.73633359561554   19.40797451773353    1.40792015961549
C         9.07254600812148   20.29155029078699    0.57286386134755
C         7.68720252998546   20.23044585380559    0.51239659115091
C         6.96341669012648   19.31905780558110    1.26358419098964
C         9.81196799932195   17.50821121486051    3.02685124440069
C         9.82295157006023   21.27291716177600   -0.27518376302365
C         5.47430630103758   19.24948830582054    1.11609797969336
C         5.98483529663630   14.31572065712639    4.05352404908401
C         5.22507723065131   13.53641867589605    3.17416664856148
C         5.01882052611587   12.20118883313385    3.47916205983788
C         5.54678055654645   11.62520201395994    4.62686599866312
C         6.31574761693243   12.41140490289723    5.46891665044279
C         6.55243751837112   13.75139138558450    5.19645118209323
C         4.68185041218770   14.12420300057470    1.91029118326002
C         5.28547213402103   10.18286632966482    4.93693719193229
C         7.43704093219320   14.54852170495485    6.10900496433200
C         7.95673707660121   13.74632137106271   -1.84615585197641
C         6.62782378932200   13.46194387165534   -1.99941616614591
C         6.47490920797833   13.02140155023304   -3.33254002838910
C         7.71828499111481   13.06958056831022   -3.88660082423081
O         8.62015486802753   13.50304720286491   -2.99871297250920
C        10.11159600863637   12.95148327607516   -0.35452442329061
C        10.14906448547525   11.66455117523089   -0.81626335891700
C        11.32999379776697   11.09537054609937   -0.28759403890903
C        11.91188560460217   12.06931605570977    0.46433194058146
O        11.18069575900939   13.19050652698438    0.43628341770059
C        10.00465163952686   15.53147183053685   -1.21707400754462
C        10.11649211933352   16.88697097364944   -1.06251087251484
C        11.17088445070439   17.28715762561682   -1.91179676145702
C        11.62443058367824   16.15002484459531   -2.50952687629977
O        10.93164028874906   15.08382634734977   -2.09526876619106
H         6.81710833668732   18.47419481337823    4.79002804948857
H         5.41116716647715   18.74848138085212    3.74733067119476
H         5.67332248099833   16.56572770105099    5.64868826942730
H         4.42943112176272   16.68429567113530    4.39258451212152
H        10.81622822637985   19.42670586761940    1.45344867344677
H         7.15852499615301   20.89672829058420   -0.15421637390826
H         9.81623121298993   16.52580307315770    2.52839493381387
H         9.35616915704175   17.38497698227362    4.00805776622291
H        10.84109201551326   17.83410302419507    3.15371760251145
H        10.88761860250876   21.24174725288838   -0.05879069065635
H         9.45971069146315   22.28462823164019   -0.10196121118267
H         9.67604410552744   21.04327351363148   -1.32984775041558
H         5.18210795910621   19.63780447736710    0.14426095569970
H         5.14101912130458   18.21687765472949    1.18359883556639
H         4.97113163016045   19.84472378426779    1.88011393316832
H         4.43609516017708   11.59146770694432    2.80344537583503
H         6.75796229675036   11.97259526527514    6.35197813083706
H         4.03246802791516   13.41661119733073    1.40210644143751
H         4.12571528007558   15.04026874889218    2.10329230517729
H         5.52166284461398   14.37964403643009    1.24250524953153
H         5.43569581209488    9.56849796585421    4.05163749095534
H         4.25380504183821   10.05111805326487    5.26365482738878
H         5.94289030904163    9.82847734772220    5.72637637526028
H         7.93874344607902   15.34484587934526    5.56348545481687
H         6.86183931350361   14.98762915387527    6.92576199601519
H         8.19391700839395   13.90228741242891    6.54669663935209
H         5.86597956748644   13.57543015680479   -1.25510668937257
H         5.56747168363872   12.71507987389514   -3.81169911882925
H         8.07228620955664   12.83302136160479   -4.87142709321646
H         9.43193630660631   11.19122796680922   -1.45590487393166
H        11.69182404087553   10.09977002969178   -0.44556949475724
H        12.81564974111298   12.08448550284441    1.04172797342038
H         9.51126272710973   17.50971887809981   -0.43401750118777
H        11.54000360315184   18.28228664268635   -2.05501126146525
H        12.40730556294061   15.97933836391196   -3.22326566174875

