23
CSD_code = JAVWIM | q = 0 | S = 0 | Stoichiometry = C6H12AgClS3 | MND = 4
Ag        0.12594701952945    1.41640249429864    8.22281602083775
Cl        2.13442738889148    2.46665922960707    8.57300673108044
S        -1.75732192145212    0.53068312900956   10.18900485536286
S        -0.33532731946711   -1.33800224665476    7.59287569233711
S        -2.26074304377447    1.47640878825554    6.87203344423388
C        -2.07072600811046   -1.25181231595505    9.88274436662236
C        -0.92339221007111   -1.97638310783982    9.20192185210824
C        -1.86137167904939   -1.35153997056903    6.57379976979328
C        -2.14064390885260   -0.04055417745144    5.86028526540849
C        -3.60209461958485    1.05941603915984    8.05202618732842
C        -3.25932208673252    1.31888915028310    9.50834557177418
H        -2.22692937793591   -1.71057168948947   10.86065861338238
H        -2.99771221709879   -1.32900066536134    9.31836138120712
H        -0.02740181670449   -1.92676507690730    9.82105043003007
H        -1.19486341933180   -3.02362955424995    9.05229549708470
H        -2.68454217052026   -1.64985053004531    7.21970798719167
H        -1.72310399898767   -2.12544118857001    5.81670504352795
H        -3.07320920942974   -0.12450804199428    5.29792242890123
H        -1.33006002820657    0.19110448992887    5.16900380716727
H        -4.45315025004889    1.68911214093952    7.78624039287843
H        -3.87757187794422    0.02163884523036    7.87600072809220
H        -4.09856275197461    1.01235995375848   10.13626514359913
H        -3.06822449314329    2.38028430461671    9.66732879005084

