94
CSD_code = JAVXIO | q = 0 | S = 0 | Stoichiometry = C37H50N2O4Pd | MND = 4
Pd        2.93943639106408   -0.14701179185311    2.75740155161624
O         1.82119991446233   -1.78488959129479    3.30396825968908
N         4.17769853441899    2.64204760693340    2.77563257970215
C         3.99089848591431    1.43877606556063    2.18642406442161
O         4.44918342027282   -1.48632674449904    2.05808618968909
N         4.51274427892767    1.55813184769576    0.94786647704807
C         4.77132887568995    3.51419339748269    1.89582146311724
H         5.00727048555888    4.52183133907124    2.16533685442866
O         1.41345734631923    2.30464738869756    1.57077137137490
C         4.98454469927554    2.83365504851246    0.75129901559902
H         5.42508346543795    3.13723831599843   -0.17588400624197
O        -0.43325360251176   -0.22819057959335    4.38730743534426
C         3.96262086064704    2.96945528795700    4.14193440829755
C         3.10168522859518    4.02449227503776    4.47886481483134
C         2.95237559234323    4.34630544506478    5.82130037448205
H         2.30291729349922    5.16010148630407    6.10231126143457
C         3.60903715434156    3.63304146779742    6.80508672838639
H         3.46600180455366    3.88823638421635    7.84449654629637
C         4.45024920681456    2.59573436313769    6.45711754459820
H         4.96067737549274    2.04731748917674    7.23325506066754
C         4.65986781889749    2.25506330209523    5.12596755373746
C         5.65562361893778    1.16392323210123    4.79976396562393
H         5.77198225494632    1.08440652420261    3.71456569629229
C         5.15804686604393   -0.19574417456049    5.30069277866110
H         4.96453168981408   -0.17419763182441    6.37096983476538
H         5.90608995267765   -0.96017822620822    5.09898333254715
H         4.22900517286520   -0.46980148095384    4.76877186506170
C         7.02888672429135    1.49671847755678    5.39064432009515
H         7.36196204740207    2.47659909436567    5.05411304787047
H         7.75773687994596    0.75556275648627    5.07115284670208
H         7.00371359977885    1.49896712089798    6.47696568323186
C         2.31463226172020    4.78992111833878    3.44003766864886
H         2.41298826325296    4.29068972253571    2.47303647941266
C         2.83609161201321    6.22562704792059    3.32742548005141
H         2.30782167980756    6.75120557924953    2.53584011821109
H         3.90049898025688    6.24735282751849    3.10266834208640
H         2.68019568698118    6.76329914073033    4.26033898483740
C         0.82082417403390    4.80470964519920    3.77657421193790
H         0.61540473719835    5.37586274578652    4.67867508292539
H         0.45133845818682    3.79183315374891    3.91152044594321
H         0.27189928287734    5.25587894990034    2.95399950541841
C         4.86952131677860    0.50793633409366    0.05029385441934
C         3.93137134180478   -0.06523022215557   -0.80698077301705
C         4.36527447247822   -1.03115299748379   -1.70904141430516
H         3.65451642538303   -1.48853030810423   -2.37964905160152
C         5.68902087687358   -1.41235230027907   -1.76507953492089
H         6.00960214339611   -2.16090331415231   -2.47475968203519
C         6.60438641209514   -0.84351216425683   -0.90022845756706
H         7.63574502246572   -1.15999086464182   -0.93865140322802
C         6.21707050952006    0.12118805633635    0.01887307417666
C         7.24756299153524    0.67059872924649    0.97998475806393
H         6.80050395493446    1.45907884135330    1.59037250082981
C         7.70158210256183   -0.44103908872143    1.92976645637605
H         8.23449779629692   -1.22067213357430    1.39087250365675
H         6.83277850489321   -0.88326845469668    2.41202505634626
H         8.36518261228653   -0.03612638700148    2.69092401483277
C         8.43652059141469    1.28834444570648    0.24093838987921
H         8.97948253849949    0.54030665970131   -0.33028035400299
H         9.12463939151897    1.73500444938619    0.95541472364312
H         8.10008667616603    2.06395908192950   -0.44398602155866
C         2.47223604767901    0.31287531873205   -0.77346266477264
H         2.31943616733666    1.13473427941840   -0.06640615199505
C         1.66029538808143   -0.89634645330691   -0.29268862671753
H         1.89188634231926   -1.78209472709562   -0.88197271264692
H         0.59681275616041   -0.69328734089967   -0.38100014841710
H         1.89839844825986   -1.10486974480700    0.76155786822636
C         1.99090589840741    0.78618287970835   -2.14768554293487
H         2.62488903810440    1.58960907598224   -2.51707630219373
H         0.97444394307554    1.16306609565504   -2.06901603024109
H         2.00035602581976   -0.02209853733800   -2.87508672322106
C         2.09261942722262   -2.99185672467083    3.10096754832240
C         3.23733619432287   -3.49670186151625    2.46960093583379
H         3.30056817451089   -4.56786924496062    2.35270154672644
C         4.30749181055671   -2.73860472728449    1.99602656391642
C         5.44903926557270   -3.51261507742213    1.36096444863589
H         6.08599243188868   -2.83185060183085    0.80338014278203
H         5.06375678843460   -4.28070617526120    0.69596881428833
H         6.03723004058602   -3.99535362497783    2.14011333867939
C         1.07054440355350   -3.99970475235854    3.58690732227469
H         1.51521308021335   -4.64919683751362    4.33836698918288
H         0.72967463795477   -4.61675451669700    2.75834091592425
H         0.22591303916047   -3.46832724514843    4.01876550420903
C         0.87441294300868    1.43448547625524    2.26469189761029
C         1.41513780732152    1.07032029414745    3.56847428241223
H         1.97541800143513    1.87904088884915    4.03503846916151
C         0.63303857246376    0.33038558502561    4.56544021992013
C         1.26040748218032    0.36487546929745    5.95681889670204
H         0.68340651152010   -0.25943839227637    6.63435265474073
H         1.26803040469631    1.38873494609322    6.32800131874694
H         2.28818327071943    0.00783621529114    5.91236346271265
C        -0.39737003654971    0.76826759083742    1.80045768036764
H        -0.61210855668934    1.05165167596593    0.77222022888487
H        -1.21085143746180    1.09858907583861    2.44502061064461
H        -0.32838856584093   -0.31140207088043    1.90893936340874

