130
CSD_code = JAVZAH | q = 0 | S = 0 | Stoichiometry = C50H74NOS3Tc | MND = 5
Tc        5.43627228653988    0.95831030674631    2.82226031556706
S         7.26500431500644    0.85492988918163    4.24659986070832
S         4.14408977633726   -0.21763803949849    4.38124260667377
S         3.97028689631631    2.72067358150315    3.21525284038946
O         5.35634366464789   -0.11188460274245    1.56544381449362
N         6.69778422740479    2.36425840783383    1.74525967022002
C         6.82799419643264    0.07055451413688    5.77367551478637
C         6.82465716354325   -1.32316207991239    5.86672753586674
C         6.53248633382477   -1.89437035366313    7.09472236521387
C         6.24710902207114   -1.12438122545057    8.21092982413865
C         6.25041432991483    0.25616115402749    8.08350615453690
C         6.53003170854732    0.87748657485836    6.87768573388098
C         7.14258588501231   -2.19809685029000    4.67889146204287
C         6.13526595769528   -3.33554362117236    4.51595446764681
C         8.56883220445910   -2.73850859550581    4.80881877003686
C         2.43706376904160    0.13009246092520    4.02977874586613
C         1.72460575670258    0.96277624055446    4.90136859107473
C         0.39655397364951    1.23141844583422    4.61721371442827
C        -0.23294393170805    0.69712716219835    3.50201327184497
C         0.48717754887473   -0.15110288134528    2.67775468170098
C         1.81791806061275   -0.45914461680864    2.92330377839706
C         2.39342981477185    1.51760718754065    6.13687513554952
C         1.75971211534262    2.80870925809001    6.64904027052241
C         2.39338608280445    0.44542269322357    7.23099627369376
C         4.33830540735803    4.06660397473648    2.12629685160274
C         4.05781702690760    3.95849517402608    0.75740151566073
C         4.37611842742948    5.03153471257573   -0.05862725053783
C         4.93352053837318    6.19885996680648    0.44417788718672
C         5.15360634623833    6.29398866403037    1.80818702106299
C         4.86436475361390    5.24527900021770    2.66730775802336
C         3.37434704332547    2.72748456947901    0.20698531947377
C         3.56143862513112    2.53180461972373   -1.29600722118641
C         1.88055222351100    2.79980974078583    0.54710259320216
C         7.31795524505672    3.39115687580372    2.32094928345751
C         8.11757972357599    4.27466341407482    1.61941562751630
C         8.28459063725414    4.09328522698623    0.25753620202430
C         7.64183973997093    3.02119455202728   -0.34186546050106
C         6.86491673211575    2.18409712319289    0.43457942866566
C         5.91719362024027   -1.76376182723220    9.53735798771239
C         7.04804055027041   -2.67888742538479   10.01024435380761
C         4.59749504291166   -2.53248428166731    9.44047567167745
C         6.53373914307441    2.38322079238199    6.74731824820256
C         5.67097087731724    3.09725760859494    7.78460160175286
C         7.97235032005407    2.90600970436100    6.81279595259730
C        -1.67576620975810    1.01768515307447    3.19512972837142
C        -1.85205316224157    2.51471508506666    2.93176973010830
C        -2.59361836997868    0.55251082356582    4.32738612046171
C         2.54776527113721   -1.46625851037613    2.06880852550995
C         2.09134769550734   -1.48362704040566    0.61128765036138
C         2.38492780060594   -2.85316166509936    2.69885248316750
C         5.27959622365644    7.35089301837042   -0.46730359979305
C         4.04985120551355    7.84221308807734   -1.23294875001920
C         6.39714109828331    6.95143580227494   -1.43317342362323
C         5.02955283961547    5.39401536666909    4.16130111469632
C         3.71280168244111    5.91583641794934    4.74489243522221
C         6.19139923353282    6.29448559440859    4.57508310207367
H         6.52839748694780   -2.96940618292246    7.17834798406379
H         6.02695623999932    0.85661686878539    8.95177849729833
H         7.08544287927571   -1.58765252669525    3.76987615019614
H         5.12501634139613   -2.93550971126293    4.53646771931096
H         6.29206226035151   -3.82885991135575    3.55961401554792
H         6.23805728857798   -4.07949962380472    5.30221797446352
H         8.66734057844798   -3.34261235490370    5.70872138117333
H         8.81795664391847   -3.35390331212971    3.94724903350445
H         9.28078282114611   -1.91773192112416    4.86647221945899
H        -0.16405902921501    1.87308088843660    5.27699395413490
H        -0.00919867732177   -0.59046924881752    1.82627738059656
H         3.43621559438815    1.73275891651021    5.87836274194165
H         2.39499877915584    3.25526944681405    7.41136069702578
H         1.64465477592221    3.52463670206951    5.83863255316072
H         0.78676297338171    2.62067721037624    7.09791814493594
H         1.37332865934416    0.15329494044503    7.47389836655512
H         2.93936312281246   -0.43218081839497    6.89322636472942
H         2.87276097864573    0.82281310646624    8.13231051242570
H         4.17245102330240    4.96483744911551   -1.11445795610038
H         5.55472389917408    7.21221604105921    2.20927448715155
H         3.78863570608250    1.84111655629841    0.70838002434646
H         3.21203602649406    1.54053038595069   -1.57585850678008
H         2.98574718310039    3.26054563976439   -1.86319741447982
H         4.61050947636689    2.61406822063258   -1.57326549294010
H         1.73247537562538    2.82127584321079    1.62433653177013
H         1.43899417943878    3.69681021689288    0.11563189353132
H         1.36139741691533    1.92915759822742    0.15325101096496
H         7.18653490122241    3.50287956304709    3.38821097310623
H         8.60153252726530    5.08720910480154    2.13719169380382
H         8.90607712620061    4.76018386468257   -0.31991694670023
H         7.74452882866528    2.83030294039300   -1.39811141013094
H         6.35909389006141    1.32973653838548    0.00683691458888
H         5.79347427765861   -0.96659831179430   10.27949623004185
H         6.82914862599900   -3.06517969731073   11.00360559963366
H         7.17238759072196   -3.52251526244083    9.33631630857139
H         7.98696186021160   -2.13063988411420   10.05041270253749
H         3.79778894766009   -1.86949466197793    9.11804922961800
H         4.67766170497238   -3.34350576358199    8.72111169537733
H         4.33283859624723   -2.95350144018536   10.40828318166697
H         6.12369735407599    2.62421970571672    5.75636438632795
H         6.13183330822003    3.06494900078289    8.76943116777515
H         5.55415777615315    4.14300315071661    7.50483577435625
H         4.68480532516598    2.64451917504905    7.83994279514333
H         8.41407570151688    2.65928272553238    7.77624268644451
H         8.58040589437869    2.45548857055990    6.03139865420510
H         7.98982310066524    3.98758755940258    6.68901551690792
H        -1.95883788204059    0.47705537811880    2.28473661267169
H        -1.60958221758493    3.09360894466657    3.81951455553410
H        -1.19663743327532    2.83530270280275    2.12471748994311
H        -2.88099597432101    2.73061464288499    2.65113553810256
H        -2.38079856343504    1.09443151412156    5.24540560459079
H        -3.63547607765571    0.72200573205505    4.06313825943084
H        -2.45145503404554   -0.50939420258106    4.51601667719155
H         3.61726464017123   -1.21911106661966    2.07154095519081
H         2.08378768371305   -0.47513059053055    0.20505403948937
H         2.78368991825178   -2.08298884672677    0.02471131648906
H         1.09920298822275   -1.91751762991516    0.50537370313856
H         1.33625637359889   -3.14614707688543    2.70162408381449
H         2.95381372747942   -3.59080319909025    2.13807801350373
H         2.74300092426406   -2.84495500284938    3.72530277091903
H         5.64539049723822    8.17736146687272    0.15273528587946
H         3.24929260144082    8.09286268085476   -0.54052006578220
H         4.29725488984479    8.72886981715532   -1.81270622515858
H         3.68614953575493    7.07860151255758   -1.91563907337580
H         7.28180878234954    6.64735860227115   -0.87781003916355
H         6.08417955702447    6.12081853100801   -2.06131707962071
H         6.66026685491874    7.78970848593458   -2.07462108357773
H         5.20336322295970    4.39883266784302    4.58647875501689
H         3.78215460761074    5.99865920325347    5.82733886292446
H         3.47783974736034    6.89499279206836    4.33201944441825
H         2.90142080867905    5.23430248242933    4.50056937898342
H         6.35857796978360    6.20382971439156    5.64669164653245
H         7.10765656050981    6.01399279200090    4.05948698136551
H         5.97692545970751    7.33898032469525    4.36197228342123

