47
CSD_code = JAWBEO | q = 0 | S = 0 | Stoichiometry = C16H27O2ReS | MND = 5
Re        1.05496698375381    2.45218143762447    7.78246518388788
S         2.35876515845988    0.60556443746096    8.98348176671373
O         1.32186843889420    2.15718421634599    6.17738713980073
O         0.32151549558722    3.45783265966738    8.87515285521518
C         2.12701322689129   -0.90222926743367    8.10072519401738
C         2.04809894045673   -0.94093652493867    6.71274439490760
C         1.93295021701288   -2.15525979856330    6.06357727571890
C         1.91089096554179   -3.33712791743870    6.78751986362736
C         2.00366338816223   -3.29860723393370    8.16913895946357
C         2.10506241456060   -2.08820793021736    8.82919859805716
C        -0.49676419652687    0.88407968118377    8.14306206975134
C        -1.91287035053374    1.35837343929231    7.84569709550150
C        -2.44148473042533    2.25294336456401    8.96612022909006
C        -1.99989338443889    2.09214816227109    6.50204798216279
C        -2.77593053612773    0.08471160650298    7.76744056958088
C         3.07540651749291    3.30647478277580    8.21137486768300
C         3.15135762293745    4.80600366025013    7.96720078100117
C         2.47424719847074    5.58128297889167    9.09673872314563
C         2.53779017846699    5.20032470004158    6.61857798646882
C         4.65205115311430    5.15342379835281    7.94637471066253
H         2.06328935100088   -0.01536205911833    6.15231246915796
H         1.86346548581170   -2.17822084114210    4.98597037314356
H         1.82018042321186   -4.28353535775544    6.27595840614370
H         1.98935995119501   -4.21577623738820    8.73909857088721
H         2.17846283394260   -2.04918777779846    9.90488232030589
H        -0.42263840447905    0.54804101173171    9.17925785578517
H        -0.23585582241547    0.05752975870495    7.47901466135351
H        -1.75449517642118    3.08205924996554    9.13282322617866
H        -2.53126899111634    1.69479747571396    9.89552742049364
H        -3.41649628699571    2.65917916573164    8.70774676604717
H        -3.04028325726085    2.26286482687848    6.23221714184224
H        -1.52795088520000    1.50794685296542    5.71425255398930
H        -1.50216831437652    3.06252343713879    6.55832791182312
H        -2.68849263580968   -0.49917898406736    8.68072565405600
H        -3.81954283956496    0.36042581601362    7.63373334944047
H        -2.47205138413079   -0.53705133481659    6.92859715735368
H         3.74889607810607    2.77010322910354    7.53934808587137
H         3.34224617695475    3.07430799743274    9.24422206204767
H         1.44722544550356    5.23789722791863    9.21762669380650
H         2.45842721742201    6.64639756393107    8.87830095504148
H         2.99640266056571    5.42572755574379   10.03814069747104
H         2.93477813620778    4.57790295519755    5.81883568608433
H         2.76115048012606    6.24110790475040    6.39249462490220
H         1.45202564233013    5.08457952068339    6.63932301934335
H         5.13730396027369    4.82963254298336    8.86404079005455
H         4.77335382588070    6.23032305047647    7.85428632245690
H         5.14787162742514    4.67660519628496    7.10430897855891

