107
CSD_code = JAWCUG | q = 1 | S = 0 | Stoichiometry = C55H43ClN5P2Ru(1+) | MND = 6
Ru        3.42418916222833    0.84796294942920    4.06980661244450
P         4.26282324104073   -1.33844806492244    4.32004548017674
C         4.86703259604150   -1.44951223333284    6.03179781786367
C         3.97219794616906   -1.62777972570342    7.08538637162823
H         2.92789585419742   -1.82010450319870    6.87293689630530
C         4.41303593762390   -1.56246818530769    8.39426872139909
H         3.71651799262997   -1.71786072888196    9.20484831241837
C         5.74519803239319   -1.29628315941706    8.66747931571481
H         6.08728166151862   -1.24951676561609    9.68994009610592
C         6.63539981165542   -1.08986534553628    7.62648401922892
H         7.67381068071435   -0.87942700015087    7.83668269970136
C         6.19956275993567   -1.15750042598474    6.31538874100114
H         6.89576798292492   -1.00019318870307    5.50138270732810
C         3.09964947342079   -2.71562815158873    4.08140045804118
C         2.91704479439402   -3.78316103686162    4.95162741325765
H         3.46529369756137   -3.83949407343697    5.88097763696088
C         2.03170850469825   -4.79263223511332    4.61474172024171
H         1.88510111036700   -5.62027198510230    5.29268459348359
C         1.34444004165015   -4.75163531294112    3.41291075712559
H         0.65541740041674   -5.54332913317582    3.16135052465346
C         1.55637426416436   -3.70719803666570    2.52700333866703
H         1.04137119869143   -3.68815708788594    1.57885950304573
C         2.43457347868645   -2.69345677579108    2.85707056039543
H         2.63376180960401   -1.87870520724569    2.17152017479517
C         5.65254963036829   -2.00324677192580    3.35171790547272
C         5.93391854603872   -1.49970103010989    2.08854357052524
H         5.33857814640962   -0.69055379480209    1.69309381190204
C         6.95364771615544   -2.05762838371070    1.33637618747345
H         7.17261405472174   -1.66140063368759    0.35656986502481
C         7.68091712473657   -3.12475319744666    1.83408416980733
H         8.47509738064061   -3.56057302099419    1.24705606759528
C         7.37974446894309   -3.64841758367844    3.08291029726070
H         7.93348825868861   -4.49385753636999    3.46312131334451
C         6.36581839899248   -3.09674772225886    3.84110042002060
H         6.12492878175521   -3.51193473759253    4.81036190727205
P         2.71560453605333    3.03831237800569    3.65680342768710
C         1.93487531895516    3.70210881737372    5.17608973482126
C         0.61110182857477    3.28790551249341    5.34755567543906
H         0.12070050351692    2.74052443174704    4.55128688432917
C        -0.08477529167261    3.59077580584206    6.50097763997603
H        -1.11191143025680    3.27371478128998    6.60770392182325
C         0.53259359769263    4.30724271800699    7.51382953171349
H        -0.00676508188272    4.54703078263876    8.41720811628102
C         1.84085865067778    4.72643536871459    7.35266178218979
H         2.32395678929109    5.29801132010746    8.13091804971745
C         2.54099030677883    4.42381195699444    6.19665188655586
H         3.55301409429301    4.78028727267053    6.09841125373800
C         4.11986990076247    4.05245335887357    3.09235491581064
C         4.26846487320776    4.16452895166622    1.70882790267340
H         3.51903388175113    3.73874117898898    1.05613593127812
C         5.37240753950381    4.79796179024150    1.17114860970801
H         5.47267206544759    4.87823014876732    0.09968248827012
C         6.34784062770262    5.32363038179523    2.00195921403044
H         7.20837807881875    5.82243373999949    1.58388021749174
C         6.22142704384696    5.19507542093036    3.37403154293791
H         6.98574890902846    5.59085437558510    4.02672495194622
C         5.12447870680483    4.55058503145835    3.91731969082043
H         5.06993589361223    4.42995981942249    4.98933693248618
C         1.42895524758655    3.56028654074179    2.48100205596744
C         1.18967561184278    4.93054656972059    2.37822024498346
H         1.78664835664806    5.62371537398737    2.95658689778306
C         0.19829804865824    5.39343676227395    1.53701968258607
H         0.01677574660093    6.45423291476726    1.45339494251385
C        -0.56396349906408    4.49742778376759    0.80113625445440
H        -1.33667910658455    4.86400517338951    0.14285405674117
C        -0.33239823465124    3.13771489013475    0.90970686885049
H        -0.92304385186890    2.43904060422997    0.33703562072291
C         0.66222108949884    2.66593926073056    1.75013796250456
H         0.86028195525396    1.60866083847597    1.82444095388860
Cl        3.31296561053066    0.68867617051096    1.72062752454139
N         3.47663401543228    1.16336859423771    5.93889058965451
N         5.35365374226742    1.51024343261615    4.24596824459768
N         6.93479517555394    2.18289823093366    5.65755638058680
H         7.39899619578456    2.41267763086096    6.51985449127343
N         1.52131494191938    0.24130932729408    4.57058821659337
N         0.06200976166167    0.02312472995026    6.23712877961363
H        -0.33404207840153    0.06811760460051    7.16059337156552
C         4.61047836287844    1.62732880601411    6.50809776057779
C         4.65965536074165    1.92368842041891    7.86661326583704
H         5.56872363032259    2.29240205755570    8.31331526946566
C         3.51691388606497    1.74068215208858    8.63299540195707
H         3.53117737341571    1.97328718916604    9.68506410499670
C         2.35781259877514    1.25542219466442    8.04506645485384
H         1.46427702015737    1.10698854674151    8.62898384224764
C         2.36924282671013    0.96301592067472    6.68450882574022
C         5.64504762645734    1.76737224491166    5.52152354640031
C         6.47544775756906    1.78814278414913    3.51418316949235
C         7.49353888056281    2.20470292026162    4.40258392482444
C         8.75186936891021    2.56609089989497    3.94713753759886
H         9.52777085224771    2.88082259515532    4.62706649045825
C         8.96004328819103    2.51486778248206    2.58398417204298
H         9.92531401689195    2.79074107244345    2.18893904032382
C         7.94912136944487    2.12929268242180    1.69813775424690
H         8.15823784888934    2.12597895534367    0.64010412298356
C         6.69740998319507    1.76369598780782    2.13973336269582
H         5.90475203191483    1.49358946560178    1.46084706462987
C         1.31092140982633    0.42581134507189    5.87552781583338
C         0.37195380484411   -0.29744794082034    4.05547994485745
C        -0.56397176722481   -0.43968509651887    5.10602587347830
C        -1.83042417617052   -0.96138484720253    4.88983727892299
H        -2.53898391122537   -1.06844126760107    5.69581627708775
C        -2.14001351867810   -1.33526104766193    3.59844011895062
H        -3.11550231042575   -1.74495360562914    3.38803757677152
C        -1.22186292514380   -1.19528184500771    2.55312563508689
H        -1.51363578786717   -1.50048280607852    1.56053939314642
C         0.03883730482862   -0.68037122796271    2.75756070162101
H         0.74819578270863   -0.57637228942595    1.95235084413798

