59
CSD_code = JAWDAN | q = 1 | S = 0 | Stoichiometry = C26H26MnN4O2(1+) | MND = 6
Mn        2.39154346778297    2.21001361407054    7.12941392739308
O         3.69550448652060    1.32873049147812    6.22318962345991
N         1.93887154966481    3.41946267960779    5.41765126064581
N         1.00604944863413    0.72236302231550    6.85251322044356
C         4.52058213000358    1.88317937307139    5.35874086529548
C         5.89978584803131    1.63880405639063    5.45055131055615
C         6.78443067082357    2.24186229030963    4.58165609395996
C         6.32269478122130    3.09451816400255    3.59173063203683
C         4.96325035900320    3.32828473739589    3.47017075759675
C         4.05727329622940    2.74159475968307    4.33621133661965
C         2.57351069126427    2.94114709957271    4.17503999227450
C        -0.11616253738118    0.81072415885077    6.13705089220715
C        -1.18037077622380   -0.06196393824277    6.27385522730350
C        -1.08839670184360   -1.08648242538135    7.20194803280192
C         0.07761586088570   -1.19478207011756    7.94097181381113
C         1.09874640567490   -0.27810764797670    7.74076431931644
C         2.38559075243619    4.77416652440615    5.77163640420371
H         6.25031616560503    0.97623414759163    6.22812546746895
H         7.84126968482587    2.04444801675419    4.67492810766467
H         7.01478841694650    3.56532554299501    2.91228255340749
H         4.60133099951059    3.97593075500282    2.68420851419610
H         2.38963459272461    3.64916643406449    3.35515010374333
H         2.11084463185790    1.98047671443891    3.91561655085302
H         0.93446110799128    3.47951080827121    5.24075086370600
H        -0.17124223308295    1.61326530649398    5.41306938145439
H        -2.06135435383504    0.06332583689513    5.66591865199321
H        -1.90034359892360   -1.78120135868149    7.34547486048612
H         0.19627666642451   -1.97872043767789    8.67168386614002
H         2.48373785967277    5.41086232213298    4.88362090743919
H         1.64051034658503    5.21219419121194    6.44485731199254
O         1.08755534902446    3.09128709251442    8.03560270418685
N         2.84418745089769    1.00057788071543    8.84119884378891
N         3.77705492515687    3.69763353069045    7.40631115115912
C         0.26244742338550    2.53683560727997    8.90001841599150
C        -1.11675442607739    2.78119095814008    8.80814623747539
C        -2.00142317964250    2.17813235994849    9.67701615281991
C        -1.53971060130061    1.32549841738420   10.66697139886756
C        -0.18026710265855    1.09174985845528   10.78858686409417
C         0.72573355686341    1.67843959962505    9.92257162689433
C         2.20949681475107    1.47891143544548   10.08377974641446
C         4.89928834184528    3.60921953504463    8.12173217636299
C         5.96352209568664    4.48187077615670    7.98490504930862
C         5.87154769850125    5.50640940521722    7.05683453667476
C         4.70551659434522    5.61475703068697    6.31784605317714
C         3.68436425611130    4.69810926551825    6.51806865848864
C         2.39750278532332   -0.35413895707933    8.48722841285594
H        -1.46726387140480    3.44374806180416    8.03055119145350
H        -3.05826104220697    2.37553341776719    9.58370311814867
H        -2.23182421674388    0.85469374721196   11.34640055855056
H         0.18163101284143    0.44412002159549   11.57457179366267
H         2.39336123058542    0.77091094505632   10.90368772408408
H         2.67214119684993    2.43959368660455   10.34319819208597
H         3.84859092494094    0.94055029356159    9.01814236926222
H         4.95436987011933    2.80666426835156    8.84569797103711
H         6.84452148507773    4.35654071078976    8.59281073045550
H         6.68351187570912    6.20110486483310    6.91329622029694
H         4.58685962094405    6.39870988331542    5.58714952171604
H         2.29934153587727   -0.99081951053703    9.37525371093838
H         3.14260837616800   -0.79216735502733    7.81403601927680

