36
CSD_code = JAWHUN | q = 0 | S = 0 | Stoichiometry = C14H13N3NiO5 | MND = 6
Ni        2.17648120380432    4.26849735478668    9.63560528525117
O         3.63374945499774    4.85849630354425    9.53882302579377
O         0.94443369396658    2.86398937492847    9.81670531744359
O        -0.33042009749727    6.36650348606015   11.70161757612932
O         0.76577366341629    5.36057496738495   10.07586234282502
O         0.01636362512128    1.39444960205050   11.18844225363684
C         2.21934988026641    3.60700962880976    6.71715239739423
N         3.24986265501200    2.55970884083484    8.58476069933208
N         1.86220757961362    4.60547884177256    7.53331819417521
N         2.40541612271633    4.05362282836413   11.76264371774425
C         4.07668216296450    1.93499021128329    6.43598173193566
H         4.05631824070835    2.06390903230358    5.36572018953573
C         4.99262825196614    0.94752785580931    8.40243087428609
H         5.67149507582126    0.27272285150589    8.89864112901586
C         0.41408892831717    5.46137916315474    5.85297731877312
H        -0.28712284639039    6.22121690021753    5.54772043777202
C         1.72556001465361    5.24858970353047   12.26932941664201
H         2.43768058180457    6.07852691780216   12.30936665406834
H         1.30098234847376    5.09227479894671   13.26768838515429
C         1.66919788589353    3.47554667235607    5.44390005660740
H         1.93584729171505    2.63914893555074    4.81778614704562
C         0.99059353888320    5.51222627963437    7.11338721569596
H         0.74319459227607    6.30040827319771    7.81135190847188
C         0.59506785841643    5.69889450440348   11.30048215484737
C         0.78343849253136    2.29751336366472   10.94148467552354
C         4.11048319728556    1.72270845272705    9.13913180048650
H         4.09329353181438    1.66451784133462   10.21834105050119
C         4.97911753751833    1.06479482698880    7.02162647238501
H         5.66039428645840    0.49022306137071    6.41213980927359
C         1.72853188211525    2.80224558770757   12.09709554471420
H         1.11086450014350    2.90103735087864   12.99599814520321
H         2.45799076535251    2.00535150734630   12.26379548232907
C         3.21332488990626    2.66200737137802    7.25332977844014
C         0.75180873736287    4.41587631285918    5.00843406174572
H         0.30753960634265    4.33196116196159    4.02781428924278
H         3.37178086624849    4.04646983355093   12.08431446057724

