48
CSD_code = JAWNED | q = 1 | S = 0 | Stoichiometry = C19H23ClN4Rh(1+) | MND = 8
C        -1.34055508153379    5.23860440970584    3.24345351069741
H        -0.47008664689928    5.49057342648982    2.65108695359857
C        -2.27838351411883    6.20165941874630    3.57218024407829
H        -2.15280042049379    7.21504611267948    3.22761339489599
C        -3.36864637420890    5.83744922493555    4.34994296870216
H        -4.12294565870619    6.56104651144616    4.61548165025038
C        -3.45870487563218    4.53255285557701    4.80089971444881
H        -4.27564648579656    4.22727632788150    5.43316825543471
C        -2.47001840079254    3.61941867976033    4.44511217209550
C        -2.36886216607632    2.26235825117656    4.98021866483699
C        -3.27842759508760    1.65711961417111    5.83831623914086
H        -4.20227776416737    2.12930800849603    6.11895966460463
C        -2.93792527194622    0.39303965598902    6.31339335509724
H        -3.61225724633110   -0.18340307389830    6.93014720469037
C        -0.90525339099020    0.50054757658290    5.30015332010964
C        -0.67302238317268    1.69474161094665    1.18369373953290
C         0.21433411022491    0.75466739210600    1.81135292975242
C         1.44527963550541    1.42116330959961    2.08050073637736
C         1.34798841823089    2.76914121372270    1.55521077957361
C         0.05556990663161    2.91859558471784    0.97625447550994
C        -1.99757753060191    1.36290019114848    0.57901368811181
H        -2.63730440552841    2.23996149800131    0.51408695038156
H        -2.51295579925504    0.59448195012314    1.15034511326067
H        -1.84451435199656    0.98316897526262   -0.43248120534338
C        -0.08382024657234   -0.69536501997893    1.99593807517110
H         0.61551256442313   -1.16826641774453    2.67858166829186
H        -0.00529654248976   -1.18924759063474    1.02610971158666
H        -1.09405101390764   -0.85502597666394    2.36733903911007
C         2.71958146472422    0.81734305956981    2.57393929377396
H         2.56601227286788   -0.18340753905485    2.96785625366910
H         3.17355160262852    1.43919976537859    3.34389712259844
H         3.42458517815791    0.75396631949107    1.74430793100624
C         2.50053902065923    3.71262088787375    1.46547504563591
H         3.20050952506585    3.35043195474092    0.71137911270642
H         3.02933498085309    3.76839873443135    2.41501812500836
H         2.18305779515681    4.71337220545919    1.18541705242469
C        -0.42716565446283    4.06095704319036    0.14567335519527
H         0.17428283513417    4.95335506551446    0.29690670423724
H        -1.47104311790269    4.29682947112227    0.34533876484380
H        -0.34716764128845    3.77857777460379   -0.90526322943748
N        -1.44358450415851    3.97617338369706    3.64778492365195
N        -1.22722719305253    1.63527805114173    4.64128603682490
N        -1.76610164327009   -0.15157242860972    6.07950719178041
N         0.32084533846924   -0.00572506658409    5.12981681676228
Cl        1.25370705586286    3.25497647659694    4.87180367349807
Rh       -0.11705805379847    2.51168591777295    3.14785457990864
H         1.04470495731068    0.63769337899079    4.82600530534861
H         0.57708431233089   -0.77626817566946    5.72652292656482

