48
CSD_code = JAWNON | q = 1 | S = 0 | Stoichiometry = C19H23ClIrN4(1+) | MND = 8
C        -1.00904565628034    8.18839948633360   10.85113439399453
H        -0.60418968368199    8.55395666355743   11.78340896578777
C        -2.22276777802780    8.65244837418256   10.37839163371132
H        -2.77918286117142    9.37893723884947   10.94747132201572
C        -2.69936969104305    8.17038981956450    9.16679201582617
H        -3.64511644742487    8.50643058394480    8.77256154476638
C        -1.92652939076235    7.26434656980932    8.46287190647464
H        -2.25466271430259    6.89243223688224    7.50668479504641
C        -0.70847196805406    6.84882796059143    8.99264422875912
C         0.25017293100979    5.99970453703162    8.28924983016378
C         0.05899962049593    5.41584709232705    7.04380117074267
H        -0.87063424761842    5.49688617885933    6.51067835277033
C         1.13379562737534    4.70135474298051    6.52082914058838
H         1.05544381537065    4.15218720885884    5.59369323261185
C         2.46262912475484    5.32421066851162    8.25854816390934
C         2.16508120240105    6.83698755903430   12.98503060394920
C         0.92697432737316    6.13785060656906   13.04052326944797
C         1.08850288712484    4.88884695755057   12.34474028205461
C         2.46601141024402    4.77576008287702   11.95112240750266
C         3.12339703894736    5.98828810176580   12.30034938811315
C         2.53014310878847    8.10138295743567   13.68574356184470
H         1.65152187261217    8.64413921163364   14.02253179275606
H         3.10962987423448    8.74937267672173   13.03140700604124
H         3.14454125902497    7.86871344912521   14.55610563057676
C        -0.28734262734784    6.52704853054805   13.81378981543472
H        -0.29890576995585    5.96819530439679   14.75065290531533
H        -1.20268753911566    6.28800705655260   13.27571262111459
H        -0.28694556580771    7.58575063427862   14.05849168962031
C         0.09164675787981    3.78002962137244   12.31449360150278
H         0.20845995800612    3.16152646282194   13.20564751793624
H         0.23651819831808    3.14296652154008   11.44535528047757
H        -0.92648183971985    4.16130281318807   12.30312348929739
C         3.09024276290415    3.53737258731196   11.40569382860465
H         4.06148737100505    3.73688177691338   10.96385140957907
H         2.45802809850994    3.06702205652810   10.65578242643526
H         3.22373322051221    2.82455496499925   12.22073198193664
C         4.58399564443787    6.28615126385680   12.23006765399975
H         5.00171179397982    6.27461527699598   13.23716564431499
H         4.75614936070363    7.27751289651243   11.81428584982150
H         5.11637243251117    5.55246178270197   11.63147710381357
N        -0.27326744491368    7.29671816397271   10.19152681433149
N         1.42861986354600    5.87372623573148    8.93440399440550
N         2.31274645874865    4.68721076284532    7.09922306778680
N         3.68361853164372    5.38751510034228    8.79934956621113
H         4.44730737728557    5.08075290355160    8.21766358732641
H         3.85261757967412    6.12615602030017    9.47061915077320
Cl        2.62420402435895    8.40767856061268    9.97790988899890
Ir        1.49309769144669    6.54304173712129   10.89496647150761

