78
CSD_code = JAWRAD | q = 1 | S = 0 | Stoichiometry = C41H26F4IrN6(1+) | MND = 6
Ir        9.81862394624788    2.01177451942579    4.20402110921232
F         6.69507253291775   -2.18727636302503    4.76553334216273
F         8.44201567134317   -0.53328566329003    8.76705818821331
F         4.88345296913093    4.24160697685425    4.14139149425824
F         8.14325725079867    6.27841033810163    6.78818512354724
N        11.01881157972504    3.28120577459046    2.88672258073878
N        12.34509268916101    4.86886671242839    2.19697855186332
H        12.65645185839649    5.78265407403003    1.90690695456166
N         8.78943094260699    0.98403205760507    2.80557124087673
N        10.74299102471831    3.07781408388532    5.65338566097234
N        11.50499876195168    0.74035822394904    3.62265450560718
N        14.88608108031401    2.70835801279681    0.88242799498500
C         8.32598984664232    3.27413299872872    4.69896231779635
C         7.02135616658193    3.27482120066428    4.22467049618424
H         6.66638571193544    2.51606035842342    3.54452733831921
C         6.13469202333139    4.25857875554839    4.62409285372841
C         6.50247312779559    5.27542640987022    5.48639421158762
H         5.80674194616723    6.04265787363865    5.78218974872087
C         7.79596651843795    5.27051200862574    5.96464679255518
C         8.71850497620846    4.28447624265134    5.60970846465286
C        10.07948203909215    4.16517584118003    6.11604189177842
C        10.69562420757686    5.03850859395992    7.01419238677901
H        10.17191319197094    5.90514521276996    7.37646639815786
C        11.98267053258641    4.78570647116287    7.44795513224096
H        12.46357545075311    5.45324988915474    8.14556273007365
C        12.63938343102587    3.65556345193292    6.98063524421502
H        13.63776983471560    3.41120262979499    7.30441082919553
C        11.97850786546592    2.83639939582224    6.08648234753703
H        12.45889717264002    1.94413285011306    5.70802990090122
C         8.87757845707688    0.68661813451055    5.38999142360570
C         8.98061501421583    0.57423721416239    6.76850889139932
H         9.56304954899092    1.27199657803819    7.34989244917344
C         8.32117672132505   -0.44470849705781    7.43547314045729
C         7.54715301983302   -1.37878896177058    6.77069116850787
H         7.03892416070570   -2.16766442487385    7.29967754309921
C         8.08758858320216   -0.25308026444652    4.68419301034068
C         8.03805822783071   -0.05722106392513    3.23986880327610
C         7.30537402498571   -0.82638224954978    2.33459383031908
H         6.70405928075148   -1.64891201124093    2.67946569956404
C         7.34668302392833   -0.52695428167386    0.98630560695278
H         6.78015605022267   -1.11380389377865    0.28079182438251
C         8.12536384854165    0.53914662049503    0.55813849106824
H         8.18649914002378    0.80664504220332   -0.48391906000403
C         8.82505751636001    1.26198539594882    1.50413280622136
H         9.44044480896148    2.09998442078958    1.20617438908118
C        11.60968679319252   -0.55107180903126    3.91369919082171
H        10.89144574680238   -0.93776898916493    4.62345287432849
C        12.57731884231001   -1.37267280591569    3.36370232609938
H        12.62056337440092   -2.41435506864644    3.63590908988506
C        13.47402800961126   -0.82297595519461    2.45867018919975
H        14.23552291383328   -1.43280763902828    1.99807285960479
C        13.37573175806772    0.52154284311402    2.15086965675712
H        14.04314142459894    1.00028584946859    1.45079348393320
C        12.38237551657691    1.28504839342122    2.76040658598081
C        12.21234409645628    2.70947822646442    2.52140872592893
C        13.06514748069250    3.70784716762076    2.06882342044834
C        14.43346071095026    3.75485941763802    1.56953795872255
C        15.22097591081803    4.88968948380969    1.78481349493147
H        14.85795866776059    5.71662457846073    2.37673202393035
C        16.49883372561955    4.92429809518073    1.25407535687511
H        17.12778619119039    5.78810499462018    1.40719803764424
C        16.95539653940802    3.83590387135955    0.52726030409828
H        17.94055105773936    3.82743627618424    0.09121149512611
C        16.10614660163056    2.74876217133146    0.38231906878446
H        16.40972246214371    1.86716403318359   -0.16575240516441
C        11.11449632479918    4.57636730925624    2.67609655870759
C        10.09061880151365    5.58324753889784    2.91563236327029
C        10.42470100795840    6.76484808691877    3.57521578942552
H        11.43473865978663    6.91857215090319    3.92876278160407
C         9.45710962781399    7.72370748121350    3.80825675320085
H         9.71604133532412    8.63075380474956    4.33175142671020
C         8.15931359893200    7.52129272703060    3.36776322568220
H         7.40889830380835    8.27608690304632    3.54276341546728
C         7.82587662307617    6.35243398428130    2.70260441579601
H         6.81771775826261    6.19995732714026    2.35045241779854
C         8.78261814584611    5.37946419304607    2.48328077728623
H         8.52919223681196    4.47019499158576    1.96192927433460
C         7.44214397504759   -1.26498632218984    5.39940121394050

