87
CSD_code = JAWSOS | q = 0 | S = 0 | Stoichiometry = C33H47BO3OsP2 | MND = 7
Os       14.96385549226139    9.05417971589292    1.48879444440619
H        15.84413548991450    9.53934238338458    3.19324218240055
H        15.06548451320844   10.39179183907972    0.64024264242016
H        14.23510867078771    8.47161806218889    0.21971207530312
P        16.87845797113877    8.00141111178333    0.83137101785571
P        12.92783035614160    9.34415138548335    2.48035779891711
O        17.29149736588985   11.07385015381527    2.36214797054708
O        15.26283590680540   11.73131285167287    3.19610115160349
O        14.63643853502257    6.92064337991156    2.45201982049666
B        16.01929387358823   10.64016822972184    2.75254376281838
C        17.26028437073548   12.42565949783440    2.43896029713712
C        16.01753244785421   12.82836587221914    2.94929783048334
C        15.71735946025336   14.16068999784933    3.14269007401791
H        14.75913185765780   14.46763131495649    3.53013903838426
C        16.70027292826387   15.08410224830848    2.80991680020673
H        16.49934159386509   16.13617192759170    2.94574480370512
C        17.92892159215975   14.68606615278492    2.30632023701578
H        18.66679655059496   15.43401523272706    2.05774262182870
C        18.23446615336260   13.34522489583950    2.11039789587812
H        19.18745645585850   13.03304356205469    1.71434138413369
C        17.53918925987426    8.09230043275616   -0.90784528901691
H        18.39357310626465    7.42050626334446   -1.04023901455877
C        16.43275788991132    7.71177329957094   -1.88363763077803
H        15.57065127574390    8.35597384167712   -1.71545076916278
H        16.12230588030410    6.67789707217788   -1.74220610479248
H        16.77405757896590    7.83532766240822   -2.91024426933190
C        17.97216407888999    9.53856644187522   -1.13104473075252
H        18.30895327377289    9.68606758162032   -2.15617427450636
H        18.77856754061451    9.81997235085991   -0.45628729616217
H        17.12261896726453   10.19378216989427   -0.93842651715140
C        18.45281149709557    8.04737122481922    1.88735770574950
H        18.63197402712199    9.11955545635713    2.03259754052966
C        19.70705827232714    7.41219634770090    1.29664501947472
H        20.52226670537238    7.50164609297580    2.01506671944788
H        20.01853821566971    7.90611856742596    0.38042103361640
H        19.55428111882697    6.35304932062984    1.09892276122269
C        18.15887544884710    7.41964837622091    3.24958746200256
H        18.07361566598605    6.33576633452686    3.16507244679041
H        17.23147989075302    7.80501948749894    3.67213541019440
H        18.95957266927575    7.64540830952523    3.95320242802208
C        16.44926424194275    6.22606917004830    1.04672164861048
C        17.15155775730743    5.19420525128239    0.43776656740789
H        17.93884199026422    5.42722834376864   -0.26147427687286
C        16.83855355643763    3.87436410955716    0.69721857353508
H        17.37945969076398    3.08101696991706    0.20337877143948
C        15.85048199992212    3.56690030161216    1.61443075759505
H        15.64602583775277    2.53253933501182    1.83524007054213
C        15.13166207203386    4.56971347018108    2.24738764610947
C        15.40131992490321    5.89963903878242    1.91942182718938
C        14.11193178500950    4.31130082048291    3.33640510520481
C        14.77027608991939    4.65262878819228    4.69069815888856
H        15.12468749507123    5.68116916940088    4.71024511267535
H        15.62002036716038    3.99627706495987    4.86880172166383
H        14.05171493335457    4.52470258330628    5.49810870299834
C        13.64037260871096    2.85931674726633    3.38160830478322
H        12.93144837723545    2.72016091713216    4.19387114498467
H        14.48076437340329    2.19725026249795    3.57422658742558
H        13.16888080905868    2.57333253342036    2.44399167434586
C        12.98253872667955    5.29420907659186    3.11039897457532
C        13.32718324502184    6.60066920912316    2.75993099867180
C        12.35673543066621    7.61199317003664    2.71357688404085
C        11.02735722675789    7.26535507902751    2.91596202720579
H        10.26364666036154    8.02388364525237    2.84912868302408
C        10.66835241687558    5.95735921503689    3.17683259749193
H         9.62932094660698    5.69639231718186    3.31155866759047
C        11.64389076345425    4.98503924534876    3.29919346434582
H        11.35053492741274    3.97854740935212    3.54693107963462
C        11.49791284759655   10.18297541726664    1.63225503182058
H        10.57964960751220   10.09014612742551    2.22133479027384
C        11.29355180186604    9.55092608023925    0.26112405938408
H        10.51458155137052   10.07826250974465   -0.28731475354038
H        11.00904443309758    8.50385375307176    0.35002335531696
H        12.22515694510218    9.60731980701904   -0.30066784239077
C        11.88033641181810   11.65357307834127    1.48944795393787
H        12.83074693255170   11.72070536233260    0.95991860921834
H        11.99713012307587   12.12977828937549    2.46119810328830
H        11.12203608497532   12.19542636624581    0.92600767903343
C        12.76105761913344    9.93719138114512    4.27378804849945
H        13.30394729740278   10.88984235024883    4.28205888940557
C        13.49053799060123    8.95952321069959    5.19461108839391
H        13.61440680257421    9.39214863876339    6.18695368409624
H        14.48315624960142    8.72136915363652    4.81381058846986
H        12.92804836010752    8.03061721844487    5.29491349122969
C        11.34735242004066   10.16648492007200    4.79758736465803
H        10.76242258274365    9.24950898694942    4.75905450332176
H        10.83021495971142   10.94420578091141    4.24248368377916
H        11.40127077676979   10.48299187468792    5.83951371636615

