87
CSD_code = JAWSEI | q = 0 | S = 0 | Stoichiometry = C33H46BClO3OsP2 | MND = 7
Os        8.57873921617705   15.29385814175125    4.96189738794315
H         8.73493905934168   16.60333519189511    4.11295526787073
H        10.18228671285295   14.41750913854399    4.86811354844219
P         9.12202430112778   16.09210177059872    7.04433829696943
P         7.69421039480569   13.88494861739115    3.37920809211893
Cl        6.36101852770845   15.94631794317577    5.43386514405636
O        11.63240278174423   16.16728664529870    4.63421014963687
O        10.89199217056754   15.03772911829330    2.78737570915797
O         7.74262094333852   13.52495881533927    6.35272438898494
B        10.66471400709217   15.28353136743699    4.14556486736365
C        12.36742916770885   16.54626146631681    3.55909179558735
C        13.41329404662107   17.44266255769769    3.48168344706188
H        13.75721298780967   17.97715421246003    4.35233873948218
C        13.99522703898128   17.62790166037539    2.23421179502052
H        14.81509902981617   18.32321991052230    2.13575676174161
C        13.54635553458620   16.94332385119164    1.11509531920572
H        14.02341220338474   17.11595918700569    0.16221471150310
C        12.49376218561721   16.04027063885641    1.18925271142417
H        12.13966250624565   15.51017949908959    0.31997158549406
C        11.91351539553531   15.85375962607481    2.42696846401888
C         7.97122980764359   15.14941463912829    8.11774972478725
C         7.62012810570945   15.56826686319982    9.39396266389751
H         7.95652111266966   16.52900989601699    9.75053423199826
C         6.81890891140517   14.78439496687411   10.20122328289408
H         6.53523064787958   15.13141918317835   11.18343832681323
C         6.39957549398196   13.54342199803636    9.76048398487203
H         5.80436675387176   12.92826578932104   10.41467180387050
C         6.73570543240464   13.09047834007361    8.49400850704910
C         7.48173788985374   13.91964902699650    7.65535824625524
C         6.38851047950620   11.71256583724138    7.97142011619802
C         7.67370316506717   10.85684313094856    7.98666030332535
H         7.47034977696417    9.87187917693573    7.57055377820437
H         8.03040374826687   10.73886261431619    9.00819362712122
H         8.46585358970665   11.31750059334713    7.40029565431660
C         5.32916694967810   11.00264267132442    8.81132050227476
H         4.40183026001681   11.57049585201890    8.83069920852188
H         5.68645327889952   10.86861830466309    9.82945876724909
H         5.13249812468646   10.01261946927966    8.40708050888619
C         5.97046788753967   11.90754514073360    6.52939803524581
C         4.90965252606391   11.24072649928728    5.93594651204371
H         4.28850088765358   10.58327408863496    6.52120441622456
C         4.63249098722997   11.40869835432309    4.59243514003285
H         3.79243499676073   10.89690094488467    4.14748914516615
C         5.44489531421975   12.21189953144177    3.81601541354873
H         5.23155338744364   12.32667375753659    2.76502233318184
C         6.51289920251333   12.89853533295148    4.37747796243613
C         6.74121339136224   12.77592392896635    5.75531873259131
C        10.75052601124604   15.53820218994346    7.82263274290072
H        11.51625268624315   15.89404436258798    7.12336819775490
C        11.03972625892174   16.09010508035957    9.21495265208059
H        10.24741625616506   15.82040096495989    9.91120269606393
H        11.15590523856350   17.17016264030314    9.20858000662929
H        11.97003890496074   15.65932805975253    9.58502530994338
C        10.80889797550626   14.01162294174599    7.86598054078594
H        11.81565671298180   13.67930382714126    8.11676235564835
H        10.54839779570609   13.57617828113783    6.90203377365281
H        10.12436724783061   13.62149654833036    8.61935076277356
C         8.98773005970036   17.86554235153451    7.58049264025184
H         9.16885600309123   17.95437589220532    8.65720806413304
C        10.05441450034428   18.63818358428104    6.80672965436629
H         9.92140202280695   18.46289778514499    5.73935364973369
H        11.05873260758919   18.32105438383583    7.08035200101332
H         9.96355965945865   19.70590257119733    7.00022678469471
C         7.60074962768645   18.40199702135303    7.24927400748459
H         7.51924423953251   19.44621602212386    7.54809245991886
H         6.82392466233701   17.83079388613129    7.75394900018227
H         7.42474783263117   18.32853794381415    6.17799378594733
C         8.76264499510985   12.46995365379309    2.73056746473045
H         9.62320716077311   12.97192813259636    2.27336935052957
C         9.26368279630773   11.62347522399362    3.90025366738541
H         8.45048348142381   11.03568746999193    4.32643099431101
H         9.69143919629976   12.24493717195155    4.68607325403173
H        10.03948017932906   10.93652951476397    3.56382480735982
C         8.10112811514907   11.55987475312195    1.70049463655227
H         8.78682820997221   10.75276185119970    1.44276321736004
H         7.85796806652424   12.09098935256387    0.78457292417659
H         7.19503669760451   11.11129715571561    2.10429882924258
C         6.76142944189131   14.42636326469157    1.86686036808241
H         6.31985320881519   13.56160446650706    1.35972226598345
C         7.77409634694082   15.10797790804168    0.94850191439359
H         7.27059861328033   15.54436927041584    0.08725181266269
H         8.52739762813651   14.40869339274571    0.59129780680376
H         8.27996018316985   15.90168264353258    1.49786169408124
C         5.66154903678959   15.40403737772942    2.26146584458047
H         6.09975917005067   16.27285822352617    2.74854735836455
H         4.95997962878654   14.95028422552899    2.95889276291781
H         5.11553122028566   15.73395331872009    1.37862882840627

