73
CSD_code = JAWSOP | q = 0 | S = 0 | Stoichiometry = C27H42IrP3 | MND = 6
Ir        7.48987353033809    4.32384239900628   13.84382848643187
P         9.48852780998859    3.69784287027065   12.61130778931679
C        11.11122277438158    4.00786957465559   13.43012308615848
C         9.69691531318972    1.87585868395519   12.41024779618250
C         9.92885841614582    4.18599002982604   10.89668525468712
C         9.31243991508229    3.53897189080288    9.82958825625786
C         9.57817741773902    3.90823947324497    8.52472713704273
C        10.46031946579376    4.94288313586155    8.26077487488343
C        11.07446940366862    5.60076000364978    9.31312742669813
C        10.81017654550942    5.22759556843896   10.61950645091023
C         8.00942335839907    2.74189659417012   15.15870796664912
H        11.07121954955158    3.55588385166502   14.41872846829755
H        11.92174517558255    3.56515809945613   12.85184917319689
H        11.28973316593782    5.07227510471116   13.55794315266481
H         9.82872848875355    1.44171600712481   13.39843697185496
H         8.80845717178453    1.44399301390950   11.95739730891281
H        10.56609967050837    1.65395483723497   11.79139905778625
H         8.61785585018025    2.73727772838778   10.02167181589149
H         9.09078864732386    3.38638539685666    7.71377943309570
H        10.66982206020636    5.23575741433306    7.24226087975079
H        11.76467437224623    6.40914342581515    9.11652450706369
H        11.30673380576959    5.75030628968230   11.42446762066809
H         7.46661093267448    2.77218502533623   16.10327976509888
H         7.81219955392064    1.76195689165386   14.71855018376495
H         9.07016601953463    2.75392621246901   15.42258772764953
P         7.03349244685831    6.36832560330781   12.61139307361877
P         5.94800891431712    2.90690523132252   12.61122242751152
C         8.60053520785996    5.56514543679381   15.15834069417299
C         5.86006519242328    4.66604241712561   15.15854440612109
C         5.95353784860991    7.61859411479291   13.43010465891102
C         8.50706593106012    7.45991603681207   12.41023233218263
C         6.39046879169459    6.50556349557727   10.89677779131008
C         5.40535592991131    1.34655933138156   13.43012424336397
C         4.26592858123065    3.63739095503929   12.41022321678223
C         6.15074602048142    2.28144564317881   10.89664010994788
H         8.84575334790793    5.07997711531257   16.10294056149800
H         9.54784298187803    5.88441093473897   14.71833796249980
H         8.05983266650478    6.47777818071207   15.42235310280821
H         6.15759251932818    5.12087280599642   16.10320822636484
H         5.10983456339464    5.32668470008374   14.71850882603793
H         5.34027687035768    3.74128011653194   15.42234776670200
H         6.36494151758455    7.80997841029470   14.41871684040121
H         5.93164582984249    8.54188270192138   12.85182339588414
H         4.94248295871738    7.24096728959598   13.55792081981284
H         8.81712204852471    7.79113776601057   13.39842549609962
H         9.32530390003116    6.90642109021462   11.95739102771575
H         8.26460844614164    8.32358698321684   11.79137345935617
C         7.25899201993194    6.29528312464802    9.82964961682798
C         5.04774382274745    6.74802298872619   10.61959726450594
H         5.03393128659714    1.60719034705429   14.41873571528030
H         4.61670019649145    0.86594724911320   12.85187046872906
H         6.23793174179220    0.65978438892261   13.55793056175199
H         3.82409671954542    3.74028394905672   13.39843499240549
H         4.33617471094606    4.62275311505220   11.95739242220095
H         3.63917569146060    2.99559996385463   11.79137694843778
C         5.89861939247810    3.13877205956089    9.82954024700418
C         6.61216820327373    0.99739879833369   10.61948932257329
C         6.80631255175486    6.34080634403178    8.52478954857977
H         8.30057717521456    6.09461765802235   10.02171224611866
C         4.59241276008416    6.79035250794848    9.31321529449119
H         4.34678255402765    6.91670725618003   11.42455651533461
C         6.08554942133059    2.72399157986695    8.52468794990534
H         5.55161615026219    4.14114033030494   10.02163536082594
C         6.80318725879829    0.58191555675177    9.31311331511527
H         6.81657140276555    0.30600987962686   11.42445181516193
C         5.46921123749728    6.58743695230955    8.26084777388087
H         7.50193861000336    6.17965426874390    7.71383029383257
H         3.54722570149387    6.98389722994436    9.11661498253337
C         6.54051463894552    1.44271145665701    8.26075123546386
H         5.87729924247150    3.40701423879853    7.71374643046023
H         7.15816882583065   -0.42001166053460    9.11650871183136
H         5.11081405044692    6.62243940300374    7.24233311183387
H         6.68940370493900    1.11484513154317    7.24223682489699

