73
CSD_code = JAWYUC | q = 0 | S = 0 | Stoichiometry = C36H30I2N2O2Pd | MND = 4
Pd       11.77942932423673   14.95197551440353    2.98226072502148
I        11.79924825758319   16.02015838022055    0.60490530257961
I        11.75617461615486   13.87922558861940    5.36863783074023
N        12.86330325495320   16.41110569821338    3.66644027683272
N        10.69508212110290   13.47862712172885    2.32924850881668
O        16.56822585730899   19.36231252686467    4.87162039062192
O         6.93653492778413   10.34177737770829    1.54924756536119
H         6.91925098738214   10.08406632363971    2.47808561143766
C        15.28655746886632   19.43691760032313    5.48305791815306
C        14.42184427757614   18.38331090949203    4.82316497432563
C        13.03299894481312   18.41830576177834    4.91928103193128
H        12.53218407620650   19.21049389285835    5.45181605461468
C        12.29409144917577   17.41440737089200    4.32820862998326
H        11.20501884155492   17.40023016521013    4.39088092299314
C        14.18647325016810   16.37398754055998    3.54998142999653
H        14.60274545801991   15.53510148397292    2.99015412990045
C        15.00017802204137   17.33726769597653    4.11190458701468
H        16.07065138661848   17.28398339767997    4.00806988658903
C        15.44286048397951   19.17062085592551    6.97850939753198
C        16.14176056993310   20.10667703649484    7.73562660037430
H        16.50097437252375   21.01532482141282    7.26972123974975
C        16.36361084573827   19.89748348731010    9.08358530033446
H        16.90472135433988   20.63484838508218    9.65776276357583
C        15.89230373938862   18.74660775143020    9.69314640871967
H        16.06477688039111   18.58179141012140   10.74599974804901
C        15.20108383134052   17.81001932354793    8.94601749856107
H        14.83156695682441   16.90859865133419    9.41089440472794
C        14.97915458077579   18.01727947416773    7.59445555967600
H        14.44271833324003   17.27052796782321    7.02923307772504
C        14.64742128191950   20.80068049230418    5.23207540319838
C        13.76602073493480   21.37153327949615    6.14170662192762
H        13.54187479895554   20.86498696599374    7.06992870495799
C        14.92578051367759   21.46336971193377    4.04438440665334
H        15.60347209460722   21.01047106194341    3.33557260721338
C        13.46957095438001   23.25700975259908    4.68503413164641
H        13.01260555202208   24.21237483282170    4.47478929040770
C        13.18228830539254   22.59587826804047    5.86715056895307
H        12.50064177714220   23.03376495347535    6.58133189602384
C        14.34218689276727   22.68786873367924    3.77358813109198
H        14.56683153030304   23.19489713241155    2.84722575647117
C         8.26190578105511   10.18009558122996    1.06472295400670
C         9.14309467400336   11.32587920954303    1.54114023712403
C         8.56575764993387   12.55125977864934    1.85966778421608
H         7.49579731848074   12.67336019483939    1.80263606443357
C         9.37368223420874   13.59903593166784    2.25062741393434
H         8.95635556576775   14.57243109727120    2.51221564561251
C        11.26466992151360   12.31927853952284    2.01367650237439
H        12.35156104600864   12.27327692046026    2.09617347461773
C        10.52955575650749   11.22112128488301    1.61705062201658
H        11.03291328931405   10.29456055000255    1.39306687158394
C         8.77807087195517    8.82733745497037    1.53202123884345
C         9.25071620368636    8.69341811305934    2.83411661521719
H         9.31453009673235    9.55919878946892    3.48001339174698
C         9.64922893231007    7.45826962277066    3.31260139158942
H        10.02221486166236    7.37196754050886    4.32209326088105
C         9.56450371424149    6.34012231449791    2.50080632583670
H         9.87582266877040    5.37590008392669    2.87352370449637
C         9.06893671202046    6.46235042323768    1.21413214801225
H         8.98620247489626    5.59167637160774    0.58090807589709
C         8.67176505648965    7.69762184614948    0.73224738067658
H         8.27532311077047    7.78507534928155   -0.26789892844854
C         8.24380097138336   10.32650961665667   -0.45229808287208
C         7.10883083521318   10.79724827387799   -1.09494830416307
H         6.22858965725521   11.01881101136903   -0.51356608941690
C         7.10578870990356   10.96642404092599   -2.46872698393487
H         6.21524635932305   11.33009010777365   -2.95936443665631
C         8.23737159445940   10.67604087187802   -3.20955083698896
H         8.23641521370477   10.81271261826385   -4.28053449134102
C         9.37436161775174   10.21006903751347   -2.57050066966841
H        10.26188624426146    9.98098830684886   -3.14133672969065
C         9.38034944105282   10.03820441422522   -1.19887187939109
H        10.27014874875762    9.66728920686747   -0.71235723383267
H        17.15208376049798   19.98640679677546    5.31620826880858

