73
CSD_code = JAWYOW | q = 0 | S = 0 | Stoichiometry = C36H30I2N2O2Pd | MND = 4
Pd        1.72657577306278    0.00600109214105    6.11830992516073
I         2.26661196022421    1.94141164710607    4.45138591582163
O         6.82410014747951   -3.07837573816997    2.79142963537084
N         2.89960536160651   -1.17319851982688    5.11772804674521
C         5.53435675632477   -3.67051721558110    2.83604303420778
C         4.57879405898433   -2.77173401251436    3.60841995937558
C         5.06992208905570   -2.00682338647392    4.66219233652826
H         6.12211774268326   -2.03043627685045    4.89752167405604
C         4.20020109882287   -1.22110209341749    5.38945360098537
H         4.54769073889015   -0.60264409285935    6.21831920282095
C         2.41225973663442   -1.90493348393442    4.12115202516546
H         1.33855481184659   -1.82817351159277    3.94140731258796
C         3.21356590914041   -2.71601527392583    3.34258836358957
H         2.77886014551491   -3.27976720829053    2.53218774322884
C         5.62758511497885   -4.95976197173212    3.64367141759776
C         6.85722272955813   -5.42407040668664    4.08538766717021
H         7.74798887081865   -4.86879332045049    3.84029929634560
C         6.93578860966918   -6.58916167607837    4.82875720849003
H         7.89913523891807   -6.94242564951456    5.16550601780712
C         5.78867701102133   -7.29685931634221    5.14002242008641
H         5.85006275995864   -8.20356257899159    5.72301875740817
C         4.55847397967311   -6.83602455569533    4.70115246103638
H         3.65781264959881   -7.38105420916317    4.94088957040186
C         4.47635230393852   -5.67323456517555    3.95798585710055
H         3.51181917380056   -5.32554799953683    3.61870133712328
C         5.05149900420531   -3.90254715067402    1.41038540593870
C         5.01974709015458   -5.16370404910840    0.83355215484156
H         5.30008764214272   -6.02843322443067    1.41531576437497
C         4.63190041002350   -5.31616429966145   -0.48708323329040
H         4.60842589527574   -6.30322359616050   -0.92415737700897
C         4.28001939953882   -4.21344218362399   -1.24532359340395
H         3.97653005457680   -4.33594547284763   -2.27410721456764
C         4.32423208555623   -2.94983860586976   -0.68058829984732
H         4.05728472669098   -2.08212928001201   -1.26501759453507
C         4.71238118972440   -2.79513381279245    0.63733635582111
H         4.74014489864375   -1.80328555548462    1.07073184945553
H         6.80831019748592   -2.35890786647539    2.14989999634977
I         1.18764223451928   -1.92901329863000    7.78544257412077
O        -3.37047577626400    3.09029675645841    9.44566220693546
N         0.55401604905782    1.18515160403534    7.11948319944855
C        -2.08076453896753    3.68249671376701    9.40104824628824
C        -1.12515789099044    2.78374420828276    8.62870444081394
C        -1.61626625544658    2.01885849128738    7.57491322906564
H        -2.66845573951217    2.04249870624613    7.33955771953101
C        -0.74654560259349    1.23313261203663    6.84767969884691
H        -1.09402553334044    0.61476027087330    6.01875129420013
C         1.04137437292781    1.91689570604102    8.11605364678931
H         2.11509113069343    1.84015093108460    8.29576455646965
C         0.24006440049120    2.72801221055883    8.89458430807517
H         0.67475860489463    3.29175792732320    9.70499406329136
C        -2.17406681876529    4.97171501950200    8.59340319339925
C        -3.40373017689147    5.43597074468938    8.15170342004127
H        -4.29447385223501    4.88066079912802    8.39679990370354
C        -3.48234005300873    6.60108167896921    7.40837153633625
H        -4.44570122245705    6.95431603162056    7.07163116097537
C        -2.33525079074375    7.30882505875585    7.09712473082850
H        -2.39667047123682    8.21553139412689    6.51413982226157
C        -1.10502261490248    6.84801617116988    7.53594848539002
H        -0.20437365172923    7.39305483033847    7.29619422713066
C        -1.02285649751444    5.68521049943122    8.27908053238384
H        -0.05832487841204    5.33751387504808    8.61835562418317
C        -1.59794819359392    3.91451674799855   10.82671524775879
C        -1.56631518712054    5.17566391377388   11.40356960836651
H        -1.84667687159444    6.04037769987381   10.82179386690219
C        -1.17855664863188    5.32812616115979   12.72422939831215
H        -1.15518748149860    6.31517933999375   13.16132250124170
C        -0.82664758196212    4.22541127891929   13.48246791610222
H        -0.52325680440789    4.34791251748393   14.51128066580549
C        -0.87074331670454    2.96181355242043   12.91770782358782
H        -0.60378688499271    2.09410969917463   13.50214318136453
C        -1.25880721066840    2.80710588839441   11.59975810263024
H        -1.28648717378990    1.81526105387792   11.16634543937294
H        -3.35462843882812    2.37084262547598   10.08719942770384

