75
CSD_code = JAXCUJ | q = 0 | S = 0 | Stoichiometry = C28H36Br4N6Pd | MND = 4
Pd        2.96751975800451    7.85579515959992    5.45965055425882
Br        2.75863541228929    6.66377581638416    7.60998028991512
Br       -2.69708846747654    7.24695998587662    7.59036574995356
N         2.44424425107230    5.57147657918390    3.54280620066419
N         0.74858482635528    5.96699650909155    4.76145328127231
N         0.41159179288472    4.90343343737025    4.00485992239742
C         1.98716538866092    6.39619738585856    4.51870054009623
C         1.45082154384286    4.67974866691852    3.27070688675257
H         1.53077956790826    3.88586764488031    2.55812639622582
C         3.66966653031122    5.70878688119252    2.83098651841888
C         3.61654923097465    6.03239845876936    1.47152973619912
C         4.81071764776633    6.17109122639807    0.78461897237087
H         4.78219757194020    6.42629801487246   -0.26441759498358
C         6.03980441265578    6.00826495252075    1.41107297300525
C         6.06074242459724    5.71079991315083    2.76455903520321
H         7.00898611414482    5.60002481027036    3.27049198552150
C         4.88830436571734    5.55524349636818    3.49338141854468
C         2.31262411765340    6.27492391307601    0.77399002475195
H         1.77380616213924    5.34466528346545    0.59540769297142
H         2.48914794066624    6.75392325564176   -0.18480840369095
H         1.67730008668053    6.93214427622453    1.36632083511643
C         7.30894977866412    6.14309947307017    0.62909511413076
H         7.26741712360141    7.01138848378453   -0.02576957818759
H         7.45037821481710    5.26268572471160    0.00237099292037
H         8.16829317737915    6.23454192250370    1.28757698201836
C         4.95564754337161    5.24487739198747    4.95875599496257
H         4.79472308512977    6.16297371258755    5.55333764315428
H         5.93643130912506    4.85566931676814    5.22007032572225
H         4.20008626836000    4.51521796292940    5.25267672381317
C        -0.18680414956013    6.52829079236295    5.69966319387874
H        -1.09449503210012    6.81621506851842    5.16024573243949
H         0.27810817842733    7.42918781802943    6.12933595906559
C        -0.52137662002130    5.53667731332637    6.81640761550157
H        -1.21774102524089    4.78361028302888    6.44284603708493
H         0.39483114758418    5.03301609925603    7.13574112543756
C        -1.08064853424607    6.24818335086580    8.02947967687661
H        -0.36968627446583    6.97482140374877    8.42266731381777
H        -1.36157043958097    5.54452078286573    8.81056756206900
Br        3.17688163529016    9.04710257973214    3.30957493884622
Br        8.63267802353831    8.46415186166412    3.32901174891647
N         3.49133741946150   10.13979168301912    7.37653229621437
N         5.18694107618079    9.74426780659559    6.15782824441041
N         5.52399795608607   10.80778141772716    6.91446640863046
C         3.94829973156097    9.31517759385774    6.40050541367909
C         4.48478348020944   11.03148093742056    7.64863700220225
H         4.40485442003913   11.82532566610202    8.36125919554913
C         2.26595615990116   10.00241719774652    8.08840035500051
C         2.31908166281883    9.67871379567756    9.44783274376292
C         1.12491024059752    9.53998033640969   10.13473076607791
H         1.15340448832911    9.28473065600149   11.18376086906607
C        -0.10417131632939    9.70280946711349    9.50825668833883
C        -0.12511077403350   10.00031726671508    8.15477764089626
H        -1.07335357601228   10.11107047939501    7.64883948164946
C         1.04733734535482   10.15593497181778    7.42598763920670
C         3.62302932190231    9.43615029541854   10.14531557075636
H         4.16191477091246   10.36638874675725   10.32380578098701
H         3.44654917745765    8.95720655926712   11.10414931223845
H         4.25826795135184    8.77886324752435    9.55296486413249
C        -1.37331271576805    9.56784831027434   10.29021554309877
H        -1.33191911608695    8.69923334346360   10.94465524012895
H        -1.51455848644731   10.44796718547552   10.91738691555039
H        -2.23270005880366    9.47686843885501    9.63173235248606
C         0.98015217018619   10.46614928892087    5.96057521455093
H         1.14133692530663    9.54798980396344    5.36614037467652
H        -0.00062657136035   10.85524908080676    5.69907943296064
H         1.73569014598956   11.19586171499538    5.66671716213259
C         6.12232680067875    9.18288214599525    5.21968860415942
H         7.03000038546801    8.89493051197815    5.75913453829965
H         5.65738203388110    8.28199584390177    4.79002866932472
C         6.45690674700655   10.17447439305993    4.10294678897698
H         7.15323947212653   10.92756872700145    4.47650781993943
H         5.54068183027264   10.67810885738871    3.78358111634979
C         7.01622136845323    9.46291377949709    2.88993436215094
H         6.30526857374714    8.73626693619588    2.49674838777628
H         7.29717687069919   10.16653650480775    2.10883908720239

