70
CSD_code = JAXCUH | q = 1 | S = 0 | Stoichiometry = C28H38N3Ni(1+) | MND = 4
Ni       -1.52744550841230   -0.85663023834425   10.41138785001023
N        -2.47952947769000   -0.39652168077975   12.08719935125697
N        -0.55786665057640    0.67663065241349   10.83481706044277
N        -0.17567605843944   -0.99325341884011    8.96951436515722
C        -2.64220346975290   -2.29299265973213    9.86430221547587
H        -2.63809363705216   -2.41546198380149    8.77414469036327
H        -3.68295020133915   -2.13154099065557   10.17199385379827
H        -2.27130359334990   -3.22014145385830   10.32946586856540
C         0.07173057481513   -1.96868712041805    8.10248047034960
H        -0.57677926355927   -2.83247905299912    8.13490583559564
C         1.10516356974775   -1.92932086526625    7.18008757310738
H         1.22894711419385   -2.76736759711830    6.51642801568522
C         1.95294262883031   -0.82840673496918    7.12125475935086
C         1.69976529629213    0.18450647975216    8.04718479832688
H         2.32778794960984    1.05951215248615    8.07794771786758
C         0.65398677385701    0.08199385732770    8.94758403362264
C         0.36421375362403    1.09901773310149    9.97341945247212
C         0.92435026794750    2.36537633899380   10.10083180773944
H         1.66362229638167    2.69563773558560    9.39311488538209
C         0.50706617105698    3.20249631521046   11.13501548690187
C        -0.48092101647272    2.72668730539995   12.00229452256230
H        -0.84952562283295    3.35117357575677   12.79836887147286
C        -1.00059708091470    1.45266694204606   11.82378772984498
C        -2.04815307600658    0.77973838325225   12.61155154156708
C        -2.54059762412667    1.27583364380297   13.80581483886954
H        -2.15818725746779    2.21275553102690   14.17590179385665
C        -3.50367269592400    0.57493458120865   14.53286434328085
C        -3.91311349291713   -0.63652750914139   13.98607676017101
H        -4.64254690516619   -1.25521754058650   14.47924015175511
C        -3.38551743659763   -1.07525927442214   12.78224488694751
H        -3.71426115593640   -2.01959543498477   12.37249040500173
C        -4.03073094425534    1.12891248635048   15.83788121613269
C        -5.09400228931308    0.22531403964410   16.46512814775329
H        -5.95111806373218    0.10973991066752   15.80597117746042
H        -5.44489162030018    0.67344261471824   17.39102582046926
H        -4.68796286068688   -0.75462212239378   16.70436629844507
C        -2.85778017919094    1.26215547029445   16.82107676413202
H        -2.39074247830148    0.29415352850385   16.98913843952509
H        -3.22171319995628    1.63627412137164   17.77403860749524
H        -2.10057755445805    1.95036624325492   16.45511724261104
C        -4.65364159144491    2.50795631660629   15.57437988064257
H        -5.46021783934428    2.42846302092065   14.84881956581460
H        -3.92135677391918    3.21751456116881   15.19894929589643
H        -5.06349451716802    2.90544202189617   16.49880168434983
C         1.07054907849257    4.59499433466360   11.33781894928060
C         3.09784223056064   -0.70001573525136    6.14130204476725
C         4.41039066188175   -0.59713780739057    6.93294457644809
H         4.42634754207525    0.27901118110941    7.57560007687456
H         5.24704572405981   -0.52527935130051    6.24345730524955
H         4.55155895472871   -1.48068702993549    7.55166385104283
C         3.18986081899524   -1.89899987944041    5.19559120091150
H         2.28389359573980   -2.00344145029726    4.60329985232791
H         3.37133303215577   -2.82077652542302    5.74308763170936
H         4.02023088116428   -1.75231147050661    4.50990544721901
C         2.88994871561930    0.57033701153896    5.30315942013891
H         1.94007480535653    0.52612756397100    4.77478989622713
H         3.68583313642234    0.65658288431977    4.56856219005924
H         2.90120959397200    1.46647135996722    5.91755105963187
C        -0.07219342531529    5.61272177224195   11.20361537561416
H        -0.53447437365772    5.53942575056760   10.22143942273657
H         0.31983724100423    6.61910386577731   11.32250796117560
H        -0.84046360312250    5.45980051743022   11.95652530839205
C         1.68550413012812    4.67799881972413   12.74299798037576
H         2.47168270594094    3.93492408995925   12.85951289952736
H         0.94313806832394    4.51749799054166   13.51981333237198
H         2.12070938908724    5.66214647476433   12.89335963911028
C         2.15388617016441    4.94587635012860   10.31539656607044
H         1.75846100998661    4.94202175096400    9.30201036800753
H         2.99603395608400    4.26029472366986   10.38074465971362
H         2.52635470040888    5.94634292375585   10.51923290748592

