81
CSD_code = JAXFEW | q = 0 | S = 0 | Stoichiometry = C36H36N6S2Zn | MND = 4
Zn        3.37496455914128    8.53493528994973   13.29867687460278
S         3.09824928006771    6.56753536547301   11.98255524102044
S         4.93947558629988    9.31452320951407   14.90317103396346
N         3.02784004579694    6.83477861886678    9.39786387050814
H         2.99989658916499    5.83059146313967    9.48464604790399
N         2.83545878142859    8.82323026207983   10.46367163575852
N         2.97615963479873    9.58962344168905   11.54665758704068
N         4.05461669608978   10.41670951240977   17.08079844843877
H         5.03408598076646   10.31277315838781   17.29761255097195
N         2.36512234818309    9.80435136318328   15.70790069390281
N         1.89746880969175    9.22515389899316   14.59835916144213
C         2.98890733752073    7.53610381484875   10.54396339014254
C         2.87532832219957    7.41904190896568    8.08785984444908
H         3.58025809727211    6.92849645662548    7.40989292235082
H         3.13363218817269    8.47486916331810    8.17629980420748
C         1.45192091456411    7.27647708585726    7.55604513725206
H         1.17641142930525    6.22742498698623    7.47342018737534
H         1.37638202706628    7.73462316987331    6.57395258947698
H         0.75343594067881    7.76943152012824    8.22677027329838
C         2.56553074175308   10.82723933859488   11.49176219564011
C         2.83318982606807   11.65297191509774   12.63345537580177
H         3.57774410414879   11.25975393022660   13.31273864916009
C         2.19794283467447   12.80315866179660   12.92318238178897
H         1.42315077021719   13.15630580548984   12.25343627568751
C         2.40020407049029   13.59740462696797   14.11698677997989
C         1.50497624805546   14.63749134851959   14.39207742235691
H         0.70699309189696   14.84275472986536   13.69225515694198
C         1.61821979058237   15.38756147392323   15.54527593519812
H         0.91330498358673   16.18273345977897   15.74126938407452
C         2.63289355095889   15.12120317236859   16.45078931004599
H         2.72083989088821   15.70483256340089   17.35521648799934
C         3.53764024317907   14.10497782856338   16.18579653348473
H         4.33623729283313   13.89850192471177   16.88308399720284
C         3.42849071757074   13.35260320445707   15.03388764883026
H         4.14789749268134   12.57089483193863   14.84735564353585
C         1.86214209159520   11.36574994752563   10.31441991870186
C         2.23978231246809   12.58993788313157    9.76626634728036
H         3.05654108156993   13.14205925562631   10.20796351324725
C         1.59129172341107   13.08305975890162    8.64914489608574
H         1.89609370384255   14.02956953285337    8.22675983747265
C         0.55586749840507   12.36726950456494    8.07041315858325
H         0.05105729338070   12.75590497736425    7.19808987137896
C         0.17267772631337   11.15155325942873    8.61240176936297
H        -0.63607647246952   10.58802262543989    8.16991581660948
C         0.82403170073285   10.65014498077342    9.72313385779743
H         0.51886600486435    9.70682379700226   10.14700786347172
C         3.64386541181011    9.83537350825858   15.93722675221302
C         3.15303368748611   10.79831907553758   18.14164578391897
H         3.62804943097404   11.60148799954392   18.71043130257836
H         2.24320579267228   11.17669760781643   17.67279639370152
C         2.81129354170018    9.62771362389449   19.06012560513427
H         2.32663764755315    8.84320407681546   18.48529193167096
H         2.13494413951477    9.95442568714675   19.84496074969270
H         3.71103993982615    9.22257138324060   19.51837204295581
C         0.63111976475402    9.35391327013053   14.31318251580234
C         0.15430023712982    8.66488129917043   13.14756917506075
H         0.80002913717877    7.87515587227311   12.78663629808678
C        -0.96505700626916    8.97860954922732   12.47132814159885
H        -1.56616674471279    9.81441953510536   12.80812264485363
C        -1.41807869170642    8.32929895233455   11.25825746057838
C        -0.90186320973467    7.10815528810580   10.81159239550460
H        -0.15051255797719    6.59292028704731   11.39064306327532
C        -1.35380042252735    6.54310381067628    9.63588380001577
H        -0.95089395578456    5.59523137241563    9.30987382484513
C        -2.32140303475370    7.18089401530532    8.87467270863164
H        -2.66687348498816    6.73645666771877    7.95314544135316
C        -2.84535464764488    8.38931802969041    9.30567533792717
H        -3.60240677267371    8.89060193069887    8.71955696516992
C        -2.40489023404269    8.95292120982998   10.48650276593298
H        -2.81438017256179    9.89601363197328   10.81954421603921
C        -0.29403504205645   10.14809107051467   15.14009017561096
C         0.05727764288112   11.41609831462883   15.59524435557089
H         1.01137250073318   11.83524750363603   15.32072885447121
C        -0.81642514377397   12.14390602465628   16.38085932909431
H        -0.53118181880293   13.12964777495196   16.71913370748439
C        -2.04619373870658   11.61250411774236   16.73275022108238
H        -2.72562026091099   12.17923309423326   17.35237568719031
C        -2.40133296179062   10.34891747935776   16.28919900900754
H        -3.35750848815761    9.92804420090486   16.56448975835118
C        -1.53510019718805    9.62110488111044   15.49492396944119
H        -1.80843516896526    8.63065982591755   15.16126429432687

