59
CSD_code = JAXMUQ | q = 0 | S = 0 | Stoichiometry = C28H20Cl2F6P2Pt | MND = 4
Pt        0.46499504492617    2.03545574898988    3.08241944696891
Cl        2.32837847215950    2.71682196770569    1.95750074597548
Cl       -0.70977425657366    3.90483647336762    2.41151807047347
P        -1.56411616642417    1.67860110597770    4.07485971954756
P         1.62404436155869    0.20829116633026    3.77645827383621
F        -4.14286946002110    2.22789767635520    3.35285541008025
F        -3.73161668771390    1.59141386152719    0.65642903510206
F        -1.65539663655158    1.10192727733597    1.10561279497702
F         3.35387921712542   -1.07926017356377    2.10150093109002
F         5.55410953954066    0.48975259545946    2.88715238255873
F         4.26905979213201    1.52477323413435    4.31056716052096
C        -1.98595355802949    0.06796459148855    4.83157286568681
C        -1.63254571093722   -0.16309107638140    6.15848757997360
H        -1.18461689206975    0.63138248937639    6.73824578517334
C        -1.86989914642785   -1.39475050632059    6.73850353779383
H        -1.59668703042336   -1.56226622827779    7.76973496883693
C        -2.46322201557562   -2.40686347423026    6.00171761642388
H        -2.65895683055595   -3.36506195998382    6.45862677402073
C        -2.80472608561800   -2.18753146390084    4.67774643166424
H        -3.26579954739424   -2.97375908669697    4.09942509201781
C        -2.55752119903363   -0.96067273971290    4.08955871681680
H        -2.81466779060519   -0.80348375594280    3.05198387150503
C        -2.02058245735652    2.85334751943732    5.37669587108168
C        -1.14250585934548    3.88715025813199    5.68553232172054
H        -0.22462197408865    3.99685525813683    5.11884458512768
C        -1.45786640001696    4.78242836616659    6.69135458346982
H        -0.77847081262751    5.58784542816229    6.92588110044773
C        -2.64708482066983    4.64799766018404    7.38914998031385
H        -2.89746993450564    5.35194778351324    8.16872918243991
C        -3.51783304178932    3.61174578871166    7.08940619778818
H        -4.44348088381942    3.50797174534553    7.63550055151100
C        -3.20707524648296    2.70714836210881    6.09128492210545
H        -3.88202737103121    1.89403929833195    5.86557507578070
C        -2.94815175880442    1.83275465610156    2.88441688884252
C        -2.80697251601464    1.53960848060868    1.59659267593396
C         0.78008806639328   -1.33444720849119    3.32695518593846
C         0.31754359506264   -1.38205121174267    2.01323127736852
H         0.48337632057036   -0.52958368111060    1.36392699046045
C        -0.33772671793206   -2.50749951487116    1.55316753073599
H        -0.68916404008829   -2.54813784201718    0.53341020914615
C        -0.54039520686385   -3.58274164949291    2.40464452744162
H        -1.04836699901165   -4.46559140590893    2.04600853923043
C        -0.09773572697839   -3.52667906155914    3.71560567158428
H        -0.26354062498526   -4.36274141092621    4.37862552117515
C         0.56050390486028   -2.40282363063083    4.18474997195908
H         0.89010445686614   -2.35655185585383    5.21225379482571
C         2.00243441980215    0.12118681307193    5.54745956528696
C         2.80269714885909   -0.88288971684169    6.08676605934580
H         3.23595283521703   -1.63528121291723    5.44167015054112
C         3.04926368734978   -0.90434581398159    7.44719197900113
H         3.66923323030961   -1.68201358745661    7.86775845022555
C         2.51057192020341    0.07322448420436    8.26991436625115
H         2.71130083067220    0.05226161789083    9.33045807601307
C         1.73018044355415    1.08399136421341    7.73279007888146
H         1.32585277016549    1.85532683883010    8.37122399472667
C         1.47898882353293    1.10850563933833    6.37313874564719
H         0.88916123006524    1.90229308296245    5.92705732377789
C         3.26828815178975   -0.13122586426475    3.04881352171070
C         4.32993314364702    0.60639649957836    3.36103732111439

