71
CSD_code = JAXNIF | q = 0 | S = 0 | Stoichiometry = C35H27ClMnN3O4 | MND = 6
Mn        7.70961641779532    0.22799604516964   13.27020613796652
Cl        0.45907019921252    4.55221571400381   11.38536390328020
O         7.17647782150771    0.12923957252472   16.15052949769865
O         6.85550762667500    0.59774892330704   10.49124884365306
O         8.82201019919341    2.94037454279497   13.35040998147411
O        10.53193287130401   -0.50644876586849   12.91619663114416
C         7.44104094439423    0.18287067301119   15.03128812968979
C         7.25306798316709    0.42710323173900   11.55865742612947
C         8.32034002338115    1.90782921309879   13.33323921412486
C         9.41442336085893   -0.30232097096815   13.09100477373904
C         6.86644755284201   -1.64706595077218   13.23160255755948
N         5.53479567503512   -1.68915054060498   13.01962874524309
C         4.83262895855817   -0.47663463647292   12.89256838346353
C         5.66790281307888    0.70010891512970   13.21057066367490
N         5.06642771125763    1.78279935987141   13.41401902435358
C         5.61938630559346    3.00821732921355   13.70979247021447
C         6.02663076013769    3.31531395002205   15.00846212943908
C         6.52878611507417    4.56803480792477   15.29654560624951
C         6.63940534222214    5.54284968462659   14.31241307543438
C         6.21488870716199    5.23370794539265   13.02636676591929
C         5.70349962658264    3.98863417985175   12.72226659390229
C         7.21539605070637    6.88728430899166   14.63955473722670
C         3.55022698099198   -0.42880822284827   12.50100396103697
C         2.80460045165077    0.80745798826467   12.24540327263489
C         1.64066159660096    1.08935224690232   12.95158993579614
C         0.91935121737673    2.24150753758378   12.69664188554952
C         1.35502042019540    3.11011215960616   11.71116433901444
C         2.49760879464815    2.83389097187788   10.97541206732270
C         3.21466840166590    1.68636453108883   11.24452045382374
C         4.80410240282195   -2.91302823455583   12.89901302960810
C         4.15141160812230   -3.43998913873281   14.00660092784854
C         3.43875325330570   -4.61710972398962   13.88402781977221
C         3.36568458946157   -5.28732153497394   12.66636912408470
C         4.02436388678637   -4.74865649109673   11.56786758630090
C         4.73977461814217   -3.56953315400886   11.67629010453501
C         2.57561398372041   -6.55257190535872   12.54949281650461
N         7.43558726320496   -2.85096090966791   13.32130943427476
C         8.78878902474792   -3.13403462536161   13.62236961601443
C         9.36676167702699   -2.68322890865002   14.80294459594605
C        10.68764038552234   -2.98207689998241   15.07775390354823
C        11.45041822125373   -3.73848832234968   14.19622700903307
C        10.84992466776476   -4.21022571933544   13.03478414258898
C         9.53050125964021   -3.91872591649485   12.74832114767719
C        12.89141881460899   -4.02137136480348   14.48356822206124
H         5.93553518643675    2.56777905872854   15.78316864733768
H         6.84968839042607    4.79109948243612   16.30453525761512
H         6.29034531325830    5.97837032482326   12.24640862442159
H         5.38133359944233    3.75335316614609   11.71903091524429
H         7.06135795429138    7.58652115011884   13.82143448705356
H         8.28705830339984    6.80108301798225   14.82053320310786
H         6.75705156703005    7.29339769982797   15.53996493811949
H         3.00489874527665   -1.35012719615292   12.33204977004020
H         1.30679153941450    0.41037280297931   13.72238583993393
H         0.02490430788816    2.46429805293794   13.25732234495336
H         2.81671671173233    3.51339034560317   10.20036042631592
H         4.10411267347870    1.46266194749803   10.67438813553488
H         4.20345187674257   -2.92006588800739   14.95153773994645
H         2.92952678732835   -5.02370638280221   14.74515979561302
H         3.97580711351332   -5.25332879531237   10.61435699081708
H         5.24397382063279   -3.14949092229784   10.81796324202316
H         2.78847036273834   -7.06206605875122   11.61352979308957
H         1.50934718462393   -6.32943123101552   12.58366075828754
H         2.80014915918750   -7.22326852434988   13.37652381305592
H         6.86796915542701   -3.67037367576892   13.10778269503261
H         8.78001998508162   -2.10819518830724   15.50380999547574
H        11.13291585353541   -2.62025492986885   15.99269776024424
H        11.42414270548801   -4.80817310169097   12.34221265095952
H         9.07533260163400   -4.28451048983087   11.83889053115017
H        13.06341029823142   -4.11601403316113   15.55319512173234
H        13.50491117965139   -3.19801184522917   14.11694916491112
H        13.21791103909213   -4.93247068163266   13.98813667142966

