78
CSD_code = JAXNUR | q = 0 | S = 0 | Stoichiometry = C35H34MnN3O5 | MND = 6
Mn       10.68430510489057   -0.54022956972215   11.32173448670943
O        13.53239514641370   -0.32513368881196   11.98315950440139
O         8.46093290968997   -0.87137853777052    9.43952388260628
O        10.40697786520616   -3.33868467253735   12.15246323408708
O         9.22852245338208   -0.09131843528740   13.83158258082781
O        11.45402361016975   -3.82740274740001    3.60367602009182
C        12.40555264373769   -0.44182359479548   11.77579984696250
C         9.29368736326415   -0.70722776460891   10.21831987112627
C        10.56130207653708   -2.26832112924288   11.76513056664772
C         9.82771683224868   -0.19041420552920   12.85277058054393
C        11.01997021823049    1.40966923869521   10.69125891555977
N        11.28323190654771    1.54975459992313    9.37317148507852
C        11.36285470201861    0.39586796329258    8.56585474593379
C        11.39486393455673   -0.84439905327434    9.36490736747291
N        11.85294576124161   -1.87548260723550    8.81732167010485
C        11.96955652694582   -3.13384587600391    9.36059383914283
C        13.02290835738691   -3.44910800825146   10.21959258793648
C        13.14936602248049   -4.73051479996232   10.71745222847702
C        12.24176215966893   -5.72615563642825   10.37963546827713
C        11.20742557039108   -5.40844592744569    9.50730555208274
C        11.07073929776051   -4.13546595337359    8.99410073167328
C        12.36501228714156   -7.10147140912908   10.96244275050681
C        11.38614823622891    0.46800292758201    7.22508789777911
C        11.38025422425617   -0.67154280987913    6.30950353839730
C        12.33493791261969   -0.76116377904511    5.29839549021705
C        12.33536779117552   -1.82246665192400    4.42053085063082
C        11.36265196566611   -2.81800436790158    4.51350399148428
C        10.37991727543482   -2.71248664725881    5.49312722875079
C        10.39554806156522   -1.65095472121056    6.37671065610399
C        11.52359613970612    2.81688365786579    8.75901820267342
C        12.81325850506437    3.17138224529804    8.38444772938061
C        13.04075713676515    4.39309809001074    7.77853597576887
C        11.99640401501172    5.27890077544542    7.53948648133615
C        10.71019630454825    4.91205691305480    7.92170830559450
C        10.46868536730490    3.69252242078954    8.52553655685302
C        12.23914207663579    6.59153492453710    6.86297149881572
N        11.09267660083180    2.54678128564007   11.37530824047071
C        10.89708789434733    2.76363778929515   12.79235917193580
C        11.95725690593140    3.73386781427719   13.31327368003927
C        11.76611484703946    3.96096750383276   14.81041194663382
C        10.36763140142151    4.50018724812094   15.09530267739632
C         9.30605053746060    3.54284387949394   14.56242303639639
C         9.49498236116075    3.31519368370521   13.06625689237780
C        10.53489723526524   -4.88902722219481    3.68545263404539
H        13.73969258805068   -2.68434790315406   10.48200556474219
H        13.96431157787234   -4.95870599880174   11.39020006801804
H        10.49176635914937   -6.17043473617443    9.23094866440469
H        10.26026885294916   -3.89332117416590    8.32335746668200
H        11.85154433369642   -7.83416048153874   10.34419745081886
H        11.91819247196493   -7.12412949115419   11.95710052533225
H        13.40984276348135   -7.38993292259889   11.05829457812882
H        11.40361635566926    1.44326482415262    6.75113976823900
H        13.09789264762425   -0.00021965433559    5.21822477592378
H        13.08321501728194   -1.90707413572700    3.64776098760637
H         9.59609953584186   -3.44948476965054    5.57394701125547
H         9.62052944198359   -1.57259096398572    7.12466078997587
H        13.62604249361671    2.48368018927286    8.56434534944798
H        14.04520354206125    4.66138102171167    7.48642984834327
H         9.88753669489676    5.58770994960397    7.73927713501923
H         9.46668970203790    3.40815755496355    8.81276196407099
H        13.28895735211704    6.86851988715833    6.91322868412676
H        11.64207246227670    7.37823221433334    7.31927597011855
H        11.95456411741623    6.52458952034359    5.81266776507510
H        11.29414836471238    3.40240962683291   10.86116804479888
H        11.01706406417857    1.80224857500914   13.30252912300225
H        12.95212443247060    3.32773675109805   13.11866041800988
H        11.86901290274578    4.68802479758280   12.78507473366122
H        12.51948569188856    4.66198544567383   15.17415491722977
H        11.90505800143292    3.01517274071028   15.33770883536295
H        10.23711330238147    4.63622691913223   16.16986896607083
H        10.25012246236113    5.47637077644893   14.61824504195373
H         9.38172928560086    2.58581151980235   15.08173742418864
H         8.30994076226983    3.94737013312041   14.74928324592429
H         9.36703526154480    4.25879681794547   12.52825387220136
H         8.75093624237485    2.60755400258171   12.69519151087985
H        10.82254125123558   -5.58935195163699    2.90270790416375
H         9.50939610776987   -4.54945040299526    3.50538537119840
H        10.58723801167932   -5.39072182621991    4.65705562466687

