55
CSD_code = JAXNEB | q = 0 | S = 0 | Stoichiometry = C27H20ClMnN2O4 | MND = 6
Mn        1.84486862609487    2.14231225347528    1.98620046495801
Cl        4.20377480071425    2.33866549037112    9.16745512386559
O        -0.69721497436276    1.85355826967148    3.41243822634367
O         4.34158513406151    3.51762445358835    1.30239976227768
O         3.05995036858904    0.26378083769528    3.88098856335676
O         1.69219250812249   -0.05986690149650    0.04845171321093
C         0.27871684462818    1.90066340106789    2.81162997248524
C         3.38765559537527    2.92510799251415    1.53514300165917
C         2.60900442660897    1.03213247620218    3.15965749849653
C         1.76216716192855    0.82531677525720    0.77409934076599
C         0.90503896474567    3.59631632484632    0.95457739440716
N         0.80525233113076    4.44690570406023    1.97957253362254
C         1.47573426246764    3.82916785707504    3.06502815240315
C         1.59484231491569    4.46017214880104    4.23983049600419
C         2.25496629837341    3.93662476869236    5.42738445020278
C         1.74768595068260    4.25126831437939    6.68920764020640
C         2.33654661688574    3.76098786956370    7.83729585887097
C         3.45920332444899    2.95478223778392    7.73303130991460
C         4.00053209903731    2.65174052203689    6.49398264884087
C         3.40093465400810    3.14593277659483    5.35254742270155
C         0.11719828271122    5.68987356477539    2.00383233198830
C         0.51497645757439    6.72870043951388    1.16775674997510
C        -0.16178656115963    7.93271143054593    1.19843228180499
C        -1.23709268634973    8.12864549741965    2.05919048424514
C        -1.62472754892434    7.08280940118331    2.88769875881260
C        -0.96052310401503    5.87046132038794    2.86274987983974
C        -1.95669072852747    9.44090449385878    2.07757414268086
N         0.29766960653730    3.92477980997715   -0.18559096998714
C         0.33681259491851    3.21026546354434   -1.39440486836988
C         1.47649716894533    2.52478408302647   -1.79466085307476
C         1.47631471876983    1.82866433320546   -2.98886953154992
C         0.35908548302709    1.81586321987376   -3.81339741345930
C        -0.76468773223567    2.53398556046274   -3.41681645649586
C        -0.78037305148514    3.22671182521333   -2.22342957685938
C         0.36023739485551    1.07274354285041   -5.11303379389500
H         1.14551310444361    5.44432764746404    4.36262414687504
H         0.87027524784709    4.87751590263363    6.76804461588431
H         1.93192283818523    4.00075635090370    8.80841299263173
H         4.88590434933961    2.03926191652248    6.42528817537433
H         3.84468132895258    2.94301118338408    4.38851033898637
H         1.36239768191782    6.59313831807259    0.51053722588300
H         0.15311430322639    8.73664181554846    0.54929206617547
H        -2.45846352819810    7.21541502683294    3.56142834721395
H        -1.27409494270501    5.05911911595597    3.50338225679386
H        -1.25116481902541   10.25992954059163    2.20630463418230
H        -2.68514024272815    9.47582499893577    2.88315739143110
H        -2.47761537245648    9.59793363134241    1.13327334049736
H        -0.32347872159611    4.73411954879907   -0.18254313941391
H         2.36380813376829    2.54895876965648   -1.17859046595310
H         2.36534943657761    1.29204571481651   -3.28481766507086
H        -1.63951847215505    2.54596427901797   -4.05050260783081
H        -1.66276190687980    3.77516521137583   -1.92353366204569
H        -0.54668390055338    0.47986037271456   -5.21536233594821
H         1.22089500597898    0.41324680810566   -5.18320029758952
H         0.39491287295861    1.77406628933204   -5.94695809833588

