72
CSD_code = JAXPAZ | q = 1 | S = 0 | Stoichiometry = C35H28ClMnN3O4(1+) | MND = 6
Mn        0.82237745057697    1.93938263110734    5.36454379833211
Cl       -8.08241948827794    5.27177122175904    5.15032874705058
O         0.54030827998644   -0.97721375231919    5.25873997836913
O         0.45651944823277    4.84751939789479    5.40208725216381
O         3.19581588468424    2.03954036223403    7.08823960507142
O         2.96326005075896    2.07096788748297    3.35895449217230
C         0.68974267068473    0.15341843969812    5.30184958725610
C         0.64860963234879    3.72332853096071    5.39197505163627
C         2.22292057591753    1.96948635571750    6.49596780326246
C         2.06529866370281    2.00326882530354    4.05877969610590
C        -0.83694483447809    1.98711943673307    4.17779992323323
N        -2.00066775438873    2.24543547182908    4.81689956866549
C        -1.95632085199985    2.34522400295934    6.22404136838731
C        -0.64116857701167    1.95706524894880    6.76087863088859
N        -0.54888105969039    1.79783813596203    8.05490848038819
C         0.62282590527223    1.43797391673525    8.77912925243258
C         1.19573678428679    0.18194517563290    8.61813218561953
C         2.32542773259786   -0.14961858028638    9.34179231142859
C         2.90054727114721    0.75451350754480   10.22881921656230
C         2.29823296369270    1.99900465982435   10.39428050737985
C         1.16203493075834    2.34052565655605    9.68824682970848
C         4.14374045971244    0.40616951126774   10.97737142877586
C        -2.98818787606690    2.79283230764918    6.98067300756544
C        -4.22586749060799    3.42001047848463    6.54159712799056
C        -5.44835656154555    2.97906460074498    7.05202528219197
C        -6.63336487047071    3.53979742352400    6.62410386265093
C        -6.60619955865074    4.58571887042013    5.71062408704335
C        -5.39598784558041    5.08817917944985    5.25231566984950
C        -4.21610122115350    4.50114877999180    5.65906874543926
C        -3.26445490591612    2.22530519741768    4.14404439722132
C        -4.20788959712244    1.26525795141572    4.48335400412214
C        -5.44244188220227    1.26683448338895    3.86366619549384
C        -5.75703900773392    2.20872275256227    2.88975075982378
C        -4.78816966070081    3.14004698368733    2.53208906976795
C        -3.55251075127479    3.15599193491299    3.15042946988092
C        -7.11161048509855    2.24208022921124    2.26432427718196
N        -0.91539964855882    1.79364646850012    2.87551082902921
C         0.19021209609947    1.52769296421546    2.01361903434040
C         0.74360703059984    0.25460282003389    1.95263762372388
C         1.81141001816879    0.01524712618695    1.10879803237260
C         2.33858916066681    1.02818277878389    0.31375826845058
C         1.75522248795411    2.28996744173781    0.36928869324949
C         0.68497987666073    2.54297442237524    1.20550766575311
C         3.51475744021279    0.76593110213142   -0.56803467328466
H        -1.36219457597351    1.95090055135427    8.65261490857017
H         0.74285755474712   -0.53566496285859    7.95020703306650
H         2.76571664498934   -1.12702821922949    9.21601594352132
H         2.72545260261785    2.70914201854615   11.08570571122264
H         0.70513740661770    3.31010614436308    9.82090987940294
H         4.17000458084010    0.90248896188556   11.94389473347485
H         5.01451767757272    0.73457193877902   10.40942562444251
H         4.22504503298537   -0.66745640048964   11.12399506104877
H        -2.91607757762573    2.69947364043451    8.05775301773280
H        -5.46909920610965    2.16372960697114    7.75961197443517
H        -7.57675458067251    3.17415609895086    6.99642289660265
H        -5.38332104983251    5.92869472710964    4.57730598090863
H        -3.27295363976005    4.90440129855731    5.32221676017101
H        -3.97612486397230    0.52762973474769    5.23721862464091
H        -6.17458883554719    0.52485322970906    4.14284459136947
H        -5.00786716268823    3.87151917921375    1.76957363779450
H        -2.82565468391027    3.91115829843900    2.88618331200889
H        -7.58422140098371    1.26429490596203    2.29802343939247
H        -7.05827351882897    2.57800761976619    1.23193557878891
H        -7.74481064851056    2.94178810628730    2.81056165362741
H        -1.82387750019858    1.85681829630018    2.41480665212351
H         0.32942264233060   -0.54243522152104    2.55227525066527
H         2.24215792577049   -0.97367718605767    1.06585200386058
H         2.14447861625102    3.08477615392101   -0.24866283730600
H         0.24081066991365    3.52672830230794    1.24436851661339
H         3.56596413502370    1.48750086757725   -1.37862473399831
H         3.47195313456858   -0.23706629378061   -0.98521308207118
H         4.43300773443409    0.84558626229482    0.01406072292046

