78
CSD_code = JAXREF | q = 1 | S = 0 | Stoichiometry = C23H50CoNP3(1+) | MND = 6
Co        5.08698182777238    3.28499045528634    0.19524454909687
P         4.84186203037680    1.46402675067692   -1.06210333746096
P         4.46328068544588    5.17986526219865    1.18310505422464
P         6.11523915438437    2.27991995848847    2.03177340729088
N         6.75784872040884    3.74143917560985   -0.28277936450263
C         4.35716174839408    4.17362813238906   -1.39215500614484
C         4.99221910898017    4.82354896954847   -2.34867639315155
C         4.36290701264646    5.49252784170090   -3.55937800468042
C         4.74561138207275    6.97734841881055   -3.52273782886978
C         4.96472813966515    4.84683851623899   -4.81379632423669
C         2.84132959106641    5.36514180042327   -3.60744173755077
C         3.36589835011836    2.77737037335575    0.74480139856883
C         2.24652184656407    2.46336358253569    1.07036791974622
C         0.89193462871823    2.08195170262343    1.47466126642955
C        -0.09863204470887    2.56133214850487    0.40687774897815
C         0.56275965914990    2.73765619150268    2.82126347532582
C         0.81316276568893    0.55652339315138    1.61006899157702
C         7.82843215885873    4.02889647369104   -0.59509140636910
C         9.15518631693245    4.38831621205989   -0.98955356206899
C         6.28699394926884    0.98822899889990   -2.08668373916261
C         4.40370640672506   -0.11038955331382   -0.23593077565960
C         3.53119209038799    1.47119229194007   -2.33026254707331
C         5.72193173031367    6.51273515831547    1.23913446709303
C         3.05223375715935    6.09093527785254    0.47278052280336
C         3.88374016376936    5.10563495294021    2.91875900468941
C         7.40400789326626    1.01666598313217    1.67563693307609
C         7.17314372693922    3.35506242356681    3.08464478089725
C         5.10422942895898    1.42192625519975    3.29024868150991
H         3.27797900186989    4.09195635446242   -1.44557600837291
H         6.06987794639500    4.93768919833768   -2.34651403663432
H         4.35043621182504    7.48922991143714   -4.39674034364041
H         5.82677512442357    7.09973270562456   -3.51669867373364
H         4.34061069337707    7.45755338540544   -2.63387049662281
H         6.04819217321966    4.94674648121794   -4.82030988366761
H         4.57367820442282    5.32624530605526   -5.70780753448414
H         4.71710128233343    3.78790575103832   -4.85825446782505
H         2.37971832687942    5.82916818249427   -2.73927531695388
H         2.53449189726955    4.32304249582066   -3.65141872668871
H         2.46359057949836    5.86472431331681   -4.49639048462270
H        -1.11312745137970    2.28985396625971    0.68954535453313
H         0.12372774410131    2.10604874783848   -0.55650969361872
H        -0.04999977217799    3.64286652681526    0.29446314155365
H         0.59460613532403    3.82280635228157    2.73877859645523
H         1.27231977282185    2.42378083962966    3.58497351267423
H        -0.43583492321592    2.44938035738442    3.14152864193539
H         1.01142450872650    0.07450405205058    0.65411180815699
H        -0.18086398615896    0.26279405904205    1.93956996412288
H         1.53725915061971    0.19739761773220    2.33949100652008
H         9.37495853085664    3.97234990646282   -1.97352768759055
H         9.87999337703741    4.00200421970069   -0.27231987321031
H         9.24674956692593    5.47407702462966   -1.03511581793008
H         7.14950058290055    0.78357024731005   -1.45559402073437
H         6.52261632734697    1.81830155628763   -2.75120660727148
H         6.05068611761386    0.10526027249823   -2.67910818825012
H         3.42001904390836    0.01774850245544    0.21124885622717
H         5.11060589390401   -0.37146093584078    0.54569873178724
H         4.37316794510588   -0.90957778664120   -0.97613433311338
H         2.58408576303335    1.72033639344039   -1.85628170431119
H         3.46756583413787    0.48075694452082   -2.78048912464514
H         3.75813326478491    2.20815602212023   -3.09625180401850
H         6.01024966096466    6.75342256350021    0.21690163031434
H         6.60178419150119    6.18145309256440    1.78703104151412
H         5.30656708039011    7.39893250566665    1.71721203112538
H         3.30799196552749    6.46213797372569   -0.51616965354738
H         2.80464952761951    6.92710062968174    1.12632648823335
H         2.20025932855637    5.41829058949122    0.39883319532645
H         4.62052626757452    4.65425620714700    3.57617566557516
H         2.98014264028425    4.49965647948213    2.93696801566893
H         3.66039610180169    6.11382877468198    3.26682818518691
H         6.99901892475691    0.17764424761761    1.11700639730415
H         7.82390116493828    0.65160992784677    2.61263190880055
H         8.19511965917684    1.47613339085534    1.08440270334311
H         7.96878302629218    3.77725284570619    2.47173858861582
H         7.61458687972415    2.75978966069838    3.88395746975069
H         6.60506307651517    4.17129857023754    3.52210300972713
H         4.53981280948129    0.62497997381582    2.81064108265551
H         4.39382401724470    2.12688747565183    3.71702157300539
H         5.73706658059918    1.00969897311348    4.07539770700029

