45
CSD_code = JAXXEM | q = 0 | S = 0 | Stoichiometry = C20H16N6NiS2 | MND = 4
Ni        2.06598734017952   10.68293695372248    3.82389174886483
S         2.47383929721440    8.98834164675955    2.43564444635883
N         3.63804220723348   11.43452933745236    3.16866959062751
N         4.37428449280741   10.77565892164889    2.26066330165109
N         4.79572794999029    8.94904965905787    0.98156918092822
C         4.26919862897998   12.58055194309258    3.41075545951252
C         5.43096354306019   12.65302085038315    2.64171538285351
C         5.46544645639929   11.48305376668595    1.92002649530602
C         3.98556170513148    9.51524640551332    1.77511065307176
C         4.61724110637521    7.75166854109328    0.32357719549059
C         5.76165597598694    6.98642887402107    0.08567815242091
C         5.67178277425389    5.80065022068438   -0.61365672348265
C         4.44974451050045    5.37157480389563   -1.10782869432949
C         3.31578317205990    6.13820339879511   -0.89550872896331
C         3.39014707455859    7.31758837977052   -0.18106801804784
H         3.88114956412317   13.29809218650076    4.10952131752532
H         6.14093041407010   13.45314682522478    2.62147805786541
H         6.16179682712407   11.09808775920519    1.20404213041800
H         6.70706855957759    7.33229656512088    0.47500190363431
H         6.56004547475603    5.20893159893346   -0.78136294451209
H         4.38293007575409    4.44634702148474   -1.66065023265521
H         2.36288571307274    5.81289552726890   -1.28743072100514
H         2.50777455285631    7.91989906838701   -0.02877911294411
S         1.65846690200838   12.37722208777083    5.21246365778248
N         0.49399021601271    9.93118584935894    4.47924103890250
N        -0.24150256606739   10.58945597446740    5.38828754079908
N        -0.66215954576070   12.41547113125588    6.66853817427630
C        -0.13735630893709    8.78533504556088    4.23692445180496
C        -1.29852732230082    8.71236830768268    5.00678536233628
C        -1.33241377954596    9.88184100488478    5.72931714418856
C         0.14743165833781   11.84970218144677    5.87409574951920
C        -0.48332818901486   13.61285336373514    7.32646139919337
C        -1.62775607589718   14.37764479389168    7.56570879522535
C        -1.53748742958446   15.56356664766524    8.26475211423609
C        -0.31500446259956   15.99325093974267    8.75726677380547
C         0.81899638869999   15.22702402952147    8.54369191369541
C         0.74420213951488   14.04747684458151    7.82957251274758
H         0.25016374110629    8.06824431552017    3.53739656396912
H        -2.00846852182442    7.91222019173050    5.02706512291821
H        -2.02817639400122   10.26631233148536    6.44613101468705
H        -2.57351056318870   14.03134596614169    7.17761166320664
H        -2.42576152176786   16.15497139451483    8.43347491737453
H        -0.24785908998839   16.91864773770565    9.30976676970787
H         1.77225374379441   15.55279245116587    8.93434681670844
H         1.62661956495996   13.44546715547883    7.67634066233052

