83
CSD_code = JAYCOE | q = 0 | S = 0 | Stoichiometry = C33H33F10IrN2O2S2 | MND = 6
Ir       14.05731749431813   14.41043456698818   16.49823057144891
S         9.96574203705677   11.09548698403052   12.52427618914634
F         9.29300139804908   12.49749427062767   11.91729151570996
F        10.99089586847121   11.01225543246844   11.21569276817945
F        10.52133018368531    9.61366106894357   13.04793438585997
F         8.82540094515702   11.09988152458744   13.74592436063103
F         8.88533347867352   10.28695348981609   11.63284891187462
O        13.09139113096038   13.32443947510408   18.08531459652010
N        12.37373995760191   15.48822242387836   16.51586927799689
C        11.32192176047751   14.95587873694348   15.85563790173081
C        10.05187602487970   15.51787195735119   15.96737331620438
H         9.22056285101083   15.07613710047856   15.44380806898414
C         9.86651332657349   16.63648966508670   16.75808350053708
H         8.88795248688455   17.07943900633111   16.85989604224404
C        10.96195957989978   17.18029071989563   17.41564031721528
H        10.86287799915974   18.05656017780323   18.03545945308752
C        12.19411852228404   16.57278042886436   17.26403477485543
H        13.07288410328139   16.96406171360438   17.75754501124576
C        11.66170868969256   13.78687321041656   15.05192939626700
C        13.01430931665372   13.38257523939881   15.12018980218459
C        13.40071584825438   12.28180816071387   14.35993384052559
H        14.42681454140354   11.94686015865804   14.37805180194255
C        12.49605484400472   11.59017244312306   13.56569284903212
H        12.79271469039125   10.73725055865190   12.97923128495072
C        11.18921788056449   12.01874429992617   13.54685099146093
C        10.74099947080718   13.09762431731844   14.26155300164968
H         9.70417817775841   13.37994133201613   14.20161766403815
C        12.18254549286686   12.99123688192429   21.65354186025364
H        11.40429569783080   12.40006492495991   22.13268546843050
H        12.00205635717556   14.03731194918020   21.89022678887746
H        13.13794453543671   12.68873182820946   22.07623015104108
C        12.13584846572895   12.74638548124332   20.14756359806772
C        13.15776753452293   13.55122181298102   19.32351971093035
C        14.05724090358574   14.41051069819878   19.96037098330070
H        14.05719123320328   14.41055335123552   21.03194493242755
C        10.75009350790589   13.13825278919189   19.61440191891685
H        10.55223009739957   14.19159083890094   19.80917829953337
H         9.97806417831908   12.54492154307639   20.09862822730701
H        10.70041027872400   12.96880504723756   18.54109149742006
C        12.38966437627134   11.26010600953191   19.86498906549339
H        12.35521713858883   11.07276709607573   18.79431029050903
H        11.63210037574328   10.64927874992111   20.35032970451869
H        13.36693525422910   10.96351179875347   20.24311038731467
O        15.02326119384449   15.49643477366589   18.08531357206978
C        15.93187378562124   15.82979964950344   21.65359268068310
H        16.71008589184616   16.42099903884530   22.13276457044636
H        16.11241638793144   14.78372557404598   21.89024293132194
H        14.97645602472363   16.13223879227686   22.07628528408672
C        15.97856393344313   16.07470336823071   20.14762161752151
C        14.95676740356639   15.26975400629570   19.32353220564784
C        17.36440290028435   15.68308966992315   19.61449713978291
H        17.56245825684914   14.62979362286544   19.80930132905272
H        18.13631531145936   16.27657574612818   20.09872111870201
H        17.41406970315920   15.85252074342258   18.54118402802487
C        15.72451008961134   17.56095012553959   19.86508384300295
H        15.75902232779775   17.74834051447503   18.79441571887174
H        16.48192095301144   18.17189178529734   20.35051996008937
H        14.74715258962500   17.85735428120419   20.24313110317981
S        18.14876411502166   17.72551488734400   12.52421500363243
F        18.82134777541988   16.32352260344650   11.91702733886226
F        17.12351242679770   17.80895893587648   11.21572156307130
F        17.59331352420318   19.20732029829922   13.04808248002132
F        19.28921351435213   17.72092089418108   13.74576885857291
F        19.22915591278589   18.53406653121872   11.63279049646208
N        15.74090547588124   13.33268875558971   16.51578762069789
C        16.79267949011293   13.86498538522834   15.85544851553950
C        18.06270564654773   13.30292270526425   15.96704353571526
H        18.89399471306972   13.74463839623085   15.44342579307702
C        18.24809285395074   12.18429343435191   16.75773367902110
H        19.22664805422599   11.74131486949847   16.85946367299847
C        17.15269126949313   11.64055189781288   17.41541328332327
H        17.25178105222516   10.76425916996945   18.03519756729621
C        15.92054843502071   12.24812417905942   17.26393505415710
H        15.04179324954825   11.85684194422409   17.75746229051206
C        16.45287114707926   15.03404179682788   15.05182413280601
C        15.10029089689144   15.43839467510668   15.12022163259035
C        14.71386812923989   16.53920863953417   14.36003913584437
H        13.68777869160778   16.87418070417863   14.37823299454594
C        15.61849432190576   17.23084913074622   13.56576048191830
H        15.32182539268755   18.08381955295666   12.97937352181563
C        16.92531367023251   16.80223107288817   13.54680013010204
C        17.37354465228156   15.72329528261500   14.26141063303332
H        18.41035080116326   15.44094330219478   14.20137900203414

