53
CSD_code = JAYFOE | q = 0 | S = 0 | Stoichiometry = C21H27IrO3S | MND = 8
Ir        2.35337104251336    2.07025162023167    3.47414473773245
S         3.74630140476242    3.60087660633881    2.41385497126164
O         4.91016687097438    3.96884412239009    3.22309227965321
O         1.56391399869860    2.03636710607461    1.54679112115297
O         0.25042912031445    3.11096461794313    0.12162870917770
C         3.00715011004336   -0.13661642210582    3.75378983414427
C         4.04248485610113    0.66420235412156    4.22561009392115
C         3.51810999935922    1.51691598743113    5.28085024035213
C         2.16523242213957    1.16068349412832    5.51405210585381
C         1.79372410368256    0.22626825362659    4.47698613922102
C         3.05723032843119   -1.19867506645141    2.70688863927785
C         5.48473189813103    0.64377731191332    3.84102089223408
C         4.37693240919832    2.40469724082337    6.11971772544003
C         1.31710152053259    1.55161459971226    6.68225733902913
C         0.52547482605825   -0.56837617133177    4.42508199931746
C         0.64393400418247    2.91179438512441    1.25747794129059
C         0.19825079423613    3.69662095604564    2.44108479837996
C         0.88483408843689    3.48665619572478    3.56899695793703
C         0.66337048936298    4.21527159005351    4.81239305134538
C         1.72557407481613    4.85643209592198    5.45399605269566
C         1.51888477807016    5.55088984602541    6.63032645201332
C         0.25418618204558    5.60651325709742    7.19525816371252
C        -0.80570264944286    4.97074935762578    6.56952620787730
C        -0.60643539394773    4.28358834447968    5.38686094514219
C         4.39763627824630    2.85822672694926    0.88735325097617
C         3.12469994664386    5.14548835637634    1.67139693875534
H         2.37555606015825   -0.95768997978319    1.89256195477864
H         2.75359357263927   -2.15654886966260    3.12972116901115
H         4.05916007251491   -1.30277560580173    2.29882211531097
H         5.85534071253768    1.65895813729548    3.70275163812995
H         5.64617664239086    0.07942308941810    2.92508206851712
H         6.07400259393549    0.18163509286934    4.63494058028940
H         4.95025423180768    3.08131324472450    5.48670675049467
H         5.08121214527540    1.80613554371876    6.69881012877353
H         3.77555306958052    2.99462311446354    6.80575631723860
H         1.61087505843857    2.52012079581947    7.07696479552257
H         1.42818222460112    0.80734611451754    7.47232360663024
H         0.26761894362569    1.60348957037461    6.40540736443133
H        -0.30375847618894   -0.00491729288812    4.84417291506073
H         0.64310515257350   -1.48958163091001    4.99872937506956
H         0.28161984180858   -0.83176439874741    3.39909239090651
H        -0.58389960973108    4.43369302927088    2.32004514528098
H         2.71236016445301    4.80916582019344    5.01511692061379
H         2.34739667936924    6.04959048273515    7.11267959687217
H         0.09613303742600    6.14382694910641    8.11860760474062
H        -1.79291575239102    5.01349328674041    7.00626713484062
H        -1.42989328273617    3.78851756770240    4.89471111298955
H         3.54388687647445    2.58124784582462    0.28064919898870
H         4.96590927391430    1.97607446111718    1.15885262082705
H         5.03588331184999    3.57451497282408    0.38414267677801
H         2.40125229142849    4.88630159554418    0.90813349308816
H         3.96877600426154    5.68251132533419    1.25451752482574
H         2.65143165639094    5.73366897195276    2.44969621212238

