48
CSD_code = JAYJAV | q = 0 | S = 0 | Stoichiometry = C24H17Cl2N2O2Rh | MND = 6
Rh        8.98056828703352    2.03505936981561    8.75792179880349
Cl        7.61821748822539    2.43639098121642    6.96467656267988
Cl       10.34842209078303    1.77245451796000   10.63169046313293
O         7.77824354833298    3.15998267318665   10.38235437738829
O         7.77715683185039   -0.55946523161128    5.52106464716080
N         9.72970582831423    3.85370151572784    8.65149888218053
N         8.05093759448014    0.32331065107855    8.94742772745058
C        10.36632008629292    4.41437507173753    7.62772561648267
H        10.46996528584480    3.81178160894432    6.73454163299414
C        10.87209146371842    5.70133697809081    7.68850508649578
H        11.38238970274274    6.11674069335945    6.83456013183342
C        10.70795637439198    6.43758375069969    8.85291971404173
H        11.08972581328343    7.44403228895551    8.92923558770504
C        10.02674268952602    5.86275821198553    9.91214708862756
H         9.84472046788597    6.41161796359643   10.82273966397467
C         9.55090677754682    4.56295981115251    9.78273774848866
C         8.66454370707697    3.91347530020966   10.79062025003477
C         8.76583317861932    4.30313388511798   12.20411191078883
C         9.99130532784490    4.62696877860678   12.78585761095820
H        10.89370597914255    4.57407014274412   12.19631593359649
C        10.05052246526271    4.95272142385687   14.12730234739380
H        11.00139445643181    5.19238826416196   14.57918595309069
C         8.89628775981974    4.96506911515123   14.89550989168494
H         8.94850317518009    5.22584772606446   15.94212378311867
C         7.67842927026996    4.62788670722552   14.32588502701251
H         6.78182744517342    4.62505549893058   14.92750632667119
C         7.61264086620246    4.28680812934419   12.98918838142634
H         6.67412766742909    4.01554205582880   12.52909588482796
C        10.25583336554999    1.12025077551186    7.53047872642187
C        11.61322858841107    1.41213951312224    7.52824150588111
H        12.03673235816402    2.06635096980559    8.27929912805196
C        12.45137767127518    0.85129054568610    6.57684946886694
H        13.50772101334764    1.07754401475754    6.59998846015635
C        11.93995259229619    0.01583876700506    5.59659271810324
H        12.59200088244183   -0.40320106108089    4.84492783138043
C        10.59303853332665   -0.28014637455688    5.58948765780471
H        10.16254069445623   -0.92731909864975    4.83962064960890
C         9.74827330660642    0.25125206277630    6.56550237973149
C         8.32974261583884   -0.17467753315255    6.53019516047316
C         7.67972251049333   -0.38190885310995    7.87155349124845
C         6.72441493184235   -1.39128503418533    7.95886809971461
H         6.44813442034406   -1.90613628355221    7.05166391522857
C         6.15616523553487   -1.69240176452738    9.18093055423231
H         5.40734300099379   -2.46473480400698    9.26744171753725
C         6.57548124574248   -0.97728105453100   10.29381655069048
H         6.17378479711463   -1.18024166967532   11.27373588983425
C         7.51307237521526    0.02478799446779   10.13154345340244
H         7.84534823228968    0.61309100473791   10.97951261157446

