59
CSD_code = JAYLIE | q = 0 | S = 0 | Stoichiometry = C20H36P2Zr | MND = 10
Zr       -1.30853326438739    2.41371630742641    4.09904012688663
P         0.70186897020612    0.35046068098767    3.83708119933881
P        -2.64588683990490   -0.11439167454370    3.52628627554654
C         0.78175269119219    3.65539833899157    4.87383290444360
C        -0.32516728689892    4.32313986835526    5.43619990899941
C        -1.05675801515434    4.91238674253851    4.38578204617758
C        -0.40254721899412    4.60702640305580    3.17585525743621
C         0.73339827118569    3.83140501306023    3.47799026717509
C        -3.44431328088643    2.87155713677303    3.90181708760054
C        -3.85008717333357    2.77930996802232    2.61453399501133
C        -2.83964570147415    2.54363191434855    1.56052580160102
C        -1.61254555348760    2.08355854356216    1.91086616194818
C        -4.44326086005515    3.18036327184227    5.00148082253579
C        -5.30277205561101    2.92993023337886    2.19635537540367
C        -3.25039577117360    2.82517657140746    0.12527195580337
C        -0.58707776394652    1.85663745952442    0.80959448552643
C         1.31135345292268   -0.44662562617113    5.39271220963543
C         2.33346505276907    0.30306020043194    2.95188095211463
C        -0.07512756088284   -1.13804372638939    3.03394573518947
C        -1.40303719768011   -1.50780526293078    3.68145309703576
C        -3.96910808108442   -0.87265566682345    4.58836806630956
C        -3.38246396124433   -0.60802374362574    1.90342649131164
C        -1.44211979154769    1.40122211433202    6.13265374166517
H         1.59269370422153    3.19378511296361    5.42798155910809
H        -0.51011375567713    4.46602014237796    6.49481787215217
H        -1.90487219665466    5.57784971875037    4.49660800509331
H        -0.66589981629021    4.99977003983981    2.20140138536838
H         1.49802667886381    3.52606058337574    2.77241021002880
H        -5.10398364160735    4.00733740514452    4.72198355068631
H        -3.93337556498279    3.45952607119940    5.92874502528097
H        -5.07347245328495    2.30995923748038    5.21643992479938
H        -5.95944888761684    2.55146628359244    2.97828157377680
H        -5.55616159009190    3.97851885134589    2.02694406030336
H        -5.51666938060613    2.37826164756470    1.28355068191474
H        -2.39216523754852    3.14272231998647   -0.46335040912088
H        -3.99449517104165    3.61629187423807    0.07685761272782
H        -3.66660818219527    1.93461793621191   -0.35118882228145
H        -0.97084556152998    1.19574457821629    0.02394490524845
H         0.32866415336484    1.40725057170398    1.20418307232150
H        -0.30665831316714    2.80166794589116    0.33035341695723
H         0.47979493272969   -0.66298983879302    6.05694265097770
H         1.85203682966471   -1.36668430439718    5.17035558838443
H         1.98068456608825    0.24690936882830    5.89999551341043
H         2.99724481758086    1.03708638078360    3.40698905714363
H         2.78972287356375   -0.68341083053841    3.02730823135609
H         2.21077424671920    0.55818401181618    1.90215749433942
H         0.62577866801586   -1.98023028430427    3.07978545617890
H        -0.24269999670112   -0.88730419155553    1.98304198213959
H        -1.80774529270902   -2.41551254268808    3.22176418472032
H        -1.25933808584995   -1.70531417088555    4.74653668122727
H        -4.89820867365734   -0.34629063212021    4.37688074248719
H        -3.72447908798783   -0.72581377806611    5.63730805825544
H        -4.10058457540260   -1.93486218672240    4.38544029525169
H        -2.64094256974849   -0.49192829440442    1.11755267767121
H        -3.74572229077053   -1.63501957074698    1.92750402997011
H        -4.20755920478199    0.06857876880376    1.69592593283197
H        -0.50987368403815    1.55485438675187    6.70206722942697
H        -2.24096292495140    1.88757325830682    6.71792629636447
H        -1.65672639245714    0.32368906249299    6.18980030880027

