82
CSD_code = JAYMOO | q = 0 | S = 0 | Stoichiometry = C29H47CoP4Si | MND = 5
Co       12.49781698931923   13.21069859066193   11.33475846976023
P        12.22499374238718   13.13826395452858    9.11142659862011
Si       13.07843131059300   13.26753763681399   13.55348100239311
P        12.52773389776231   15.47117918682625   11.36182692994484
P        14.03854937371774   11.58657570563092   11.42106417700517
P        10.47172412322167   12.16055125741839   11.85008677885748
C        14.73131222997314   14.12361680043609   14.12286821534520
H        15.55010219116883   13.92798690406411   13.43868556088488
H        15.01652702661208   13.73151909602141   15.09429087348999
H        14.61965890677373   15.19817440844419   14.22183836987575
C        13.95857437387883   10.68221148395473   12.99154664560192
C        16.80088148027092   11.36427217400385   12.04948393135058
H        16.56078058834066   10.44558573275989   12.56494363463787
C        15.15748568741634    8.92630518772974    8.47118833579756
H        15.96707699802061    8.79049121162001    7.76770451002015
C        10.67262065225557   13.89595925139614    8.42912548843842
H        10.12407714454166   14.39281391607754    9.22460615190578
H        10.04391862266022   13.11247309554007    8.01100850436600
H        10.90032069729895   14.61603549359848    7.64534011667697
C        18.10641698465813   11.82030130343342   12.01804515625210
H        18.88473250262242   11.25266286341155   12.50827350349589
C        14.32527074658285    9.35638579365122   13.18708816941283
H        14.66291415589591    8.74434737939919   12.36040956823342
C        18.42146366289308   13.00125591554118   11.36467142492707
H        19.44329426518554   13.35224874049923   11.34604758066833
C        13.08508388176213    9.27762756378878   10.26431974457081
H        12.27650223705860    9.43677676617971   10.96657426108704
C        13.46171950083439   10.91230994222296   15.31462782834020
H        13.13268901896961   11.51489016592333   16.14866300595435
C        14.19261565563210   16.25009205086828   11.23244528503867
H        14.86397747069401   15.77360196434095   11.94039188604990
H        14.12590948312587   17.31613632473195   11.44782726330081
H        14.58965795136179   16.11324526537117   10.22870476103195
C        14.14841568248741   10.17865081413980   10.25991278323777
C        11.91500845617712   13.78161538711033   15.02856177346067
H        11.28398984247752   14.62807518155550   14.79468579688430
H        12.52599667100541   14.06023975895702   15.87978112127224
H        11.26597319003740   12.97058658688360   15.33814413722525
C        15.79568276502096   12.09516995346176   11.42661308767961
C        12.17729552908215   11.58679501989077    8.11667579581746
H        13.16309649515511   11.12975804434088    8.10268665454682
H        11.87628713386913   11.82061094327136    7.09524055816303
H        11.47509055287330   10.87927838342372    8.54895543737877
C        11.92411983530918   16.40501800136694   12.82696440235025
H        10.89295401134160   16.12403813387423   13.02935552829858
H        11.97152542386274   17.47692284099517   12.63652145983621
H        12.53221916917936   16.16086499338378   13.69129205239440
C        16.11792116153083   13.28177863490154   10.77979964955335
H        15.31625861150857   13.84562351025133   10.32345959228206
C        15.18135794974159    9.99926562699514    9.34613237621566
H        16.00670582621008   10.69792435861083    9.32170792662202
C        13.51678520296047   11.46860440258796   14.04828589842023
C        14.24501254722629    8.81168004149472   14.45702041659791
H        14.52026434720545    7.77813833403522   14.61743422710418
C        17.42367992134215   13.73406627777435   10.74301361504791
H        17.66535382146373   14.65899667353344   10.23771441355857
C        13.06452074013412    8.20591480860813    9.39488378906701
H        12.24046661496187    7.50612202264285    9.41350891476639
C        14.10468812745217    8.02714230008934    8.49480582618777
H        14.09256366070250    7.18947383186034    7.81266814699088
C         9.41912083256802   11.27969254887427   10.61172883587628
H         9.19458519023083   11.93918864929962    9.77789354378078
H         8.48760836317922   10.95148498188162   11.07269022979494
H         9.95657772044492   10.41030451868166   10.23749452463511
C        11.66729416557251   16.53419402921560   10.11148352304477
H        11.91491024160769   16.23026911697434    9.09905826350107
H        11.95947621390775   17.57445723065212   10.25417421041749
H        10.59108731112363   16.44848275541303   10.25043372413749
C         9.18803690777586   13.30135534739403   12.51157340568524
H         9.57856229828553   13.77189717073710   13.40953251751193
H         8.26888405680997   12.76539809332565   12.74587477050592
H         8.98164357470065   14.07438367551835   11.77347936867326
C        10.39093949070854   10.86625315647832   13.15624753454560
H        11.01313078781295   10.02040824258229   12.87010551388895
H         9.36391870316479   10.53030051358216   13.29803482085433
H        10.78072965352626   11.26373818618167   14.08768906167720
C        13.49926161440846   13.96936204498120    8.06648512487020
H        13.66772025824080   14.99141762459957    8.39706033461922
H        13.19327652522908   13.96900992909710    7.02028836739953
H        14.43026330475113   13.41241412226127    8.16573089503007
C        13.81840492627099    9.59030912215557   15.52098389124872
H        13.76310101587499    9.16089094718653   16.51216842400714

