57
CSD_code = JAYMUR | q = 0 | S = 0 | Stoichiometry = C22H24N2O8Pt | MND = 4
Pt        3.45391038253015    3.62578928556733    2.03860650964257
O         0.81930185234253    5.22366681402371    0.04213475738252
O         1.43223141328676    3.12992126682984   -0.50492159618931
O         0.88721629153124    2.04443166328348    3.43814460916513
O         0.31880081685014    1.59240550632329    1.31746865212252
O         6.78100417879263    2.22499708802733    1.41213426522775
O         6.45874171366863    4.40064390013318    0.94201116633870
O         4.92683366547381    4.89195447378911    4.74326393843908
O         6.43884449642113    5.63062960257762    3.26276012153825
N         3.17764717096599    5.58399280490771    2.08976904416976
N         3.73916359133468    1.67017645729543    1.95019596915498
C         4.04953218574848    6.50924580850592    1.69063527845111
C         3.75546346292872    7.85974682751441    1.72932665608712
C         2.51272492211656    8.26265609881766    2.19550374706529
C         1.59827152985711    7.29502377288546    2.57107430257831
C         1.95306543055653    5.95605360012129    2.49388608955677
C         1.02564289036689    4.82472832498468    2.78576920007277
C         1.33610137143804    3.68993852093390    1.78933903999437
C         1.13859478725287    4.10500818141406    0.39293117898077
C         0.84544223087705    2.38870040016773    2.27303853114539
C         1.29991593971316    3.49838496170264   -1.86614131193353
C        -0.14544327052133    0.32983094841532    1.76215586113724
C         3.21257228246665    0.84122527192328    1.04953265352955
C         3.49391686006346   -0.51247845340885    1.04516830696214
C         4.35402040469876   -1.02198372628170    2.00680846861905
C         4.92813561367062   -0.14954744568033    2.91379319286601
C         4.61323787082526    1.20032940563407    2.85369253132627
C         5.23289347496446    2.24445940893577    3.72016986702949
C         5.41551419652770    3.51865821035105    2.87188956416013
C         6.29456177193297    3.29666548797484    1.71492028416719
C         5.54837268382340    4.71984195662494    3.71272659352033
C         7.26223526244478    4.22061666442481   -0.21042328226177
C         6.56821773702128    6.79951324762313    4.05282728213177
H         5.00942313570047    6.15339300414543    1.33802447493247
H         4.48726298143360    8.57897382748348    1.39806490039164
H         2.25665809357136    9.30994301944290    2.24720705950785
H         0.60981078845108    7.56455977039200    2.90649301186200
H        -0.01457761392960    5.15213344838024    2.70640295832941
H         1.19774183824427    4.44005695359570    3.79776829249768
H         0.26843140116219    3.78190975795729   -2.08549769411120
H         1.58624447126669    2.62609460800685   -2.44861990459984
H         1.95126198092735    4.34444631478291   -2.09703118942035
H        -0.51851963956778   -0.18384955162223    0.87967312615227
H        -0.94297132345081    0.45505349886112    2.49784082112663
H         0.66750241574478   -0.23701562530395    2.22269195407639
H         2.54353846072644    1.27796309230316    0.31877033783103
H         3.04773933525112   -1.15195809295204    0.30048461909823
H         4.58551553939805   -2.07583928482994    2.03617891834696
H         5.62795175707196   -0.49958293250288    3.65537921567748
H         6.18718289833989    1.89201785846993    4.12104306261403
H         4.56886957811215    2.49032582778438    4.55702648455140
H         7.29928478396021    5.18476119179570   -0.71137398950958
H         6.82435661274800    3.46469183882869   -0.86612317231815
H         8.26649680491954    3.89823063654310    0.07177162330576
H         5.61256542080932    7.32563689423046    4.11845012133187
H         7.31261740225005    7.41856385837799    3.55841560691430
H         6.89392766489346    6.54216374948277    5.06306788923009

