19
CSD_code = JAYXIR | q = 0 | S = 0 | Stoichiometry = C2H8N2O4S2Zn | MND = 6
Zn        4.71337583350838   -0.00058679020471    9.41069566083506
S         1.05340598550452    0.00016916969366    6.66217393783049
N         3.30310898664443   -0.00097494734441    8.24405412622514
O         3.87802981100826    1.76325430761111   10.60134211878086
H         3.32705845484870    1.63281283695853   11.37685947564724
H         4.69020659470582    2.19071935389458   10.89157673468809
C         2.32311193508952    0.00147195487823    7.58711407578684
S         8.37430814878639   -0.00070100944327   12.15783370005679
N         6.12343836627415    0.00007474203762   10.57756739362775
O         3.87772187881211   -1.76343368116801   10.60145960950858
O         5.54978275152429   -1.76291963912563    8.21997561824595
O         5.54850372324570    1.76310233086790    8.21974438501343
H         3.32280883795446   -1.63371230640249   11.37429760960488
H         6.10313295078745   -1.63262065784862    7.44619055468418
H         6.10029358422238    1.63299299915109    7.44469369264443
H         4.68914321262039   -2.18975006683004   10.89540517001101
H         4.73847991086619   -2.19035500401458    7.92747918117758
H         4.73632759581947    2.19016280454111    7.92885005377840
C         7.10396143777951    0.00029360274842   11.23378690185312

