92
CSD_code = JAZBOB | q = 0 | S = 0 | Stoichiometry = C36H42B9IrP4 | MND = 8
Ir        3.95961983797325    3.83801420642594    3.42865412869772
P         1.67810643720240    3.08199801606865    2.92553057690094
P         4.58002464147739    3.18067711384335    1.25462677325852
P         4.57779036843622    1.64547485451332    4.32640916343892
P         7.40529232834236    5.10198149171066    6.45859098436939
C         1.47000658634739    2.00603175555409    1.46688977831757
C         1.57768158781284    0.62642877539447    1.64329988869364
C         1.57456160709023   -0.22505917385692    0.55651335483580
C         1.48143354006447    0.28972709604909   -0.72798631934042
C         1.40009560087193    1.65976660452413   -0.91555526825046
C         1.40294443521616    2.51424593461003    0.17225195456676
C         0.91328743524922    4.64596712974916    2.38668114188802
C         1.69868149942733    5.79978996417131    2.56267180907811
C         1.15881826458886    6.99906475174490    2.08325932752611
C        -0.08529707486111    7.05313086725152    1.48733622349517
C        -0.85128074921249    5.90263781642649    1.35503157704439
C        -0.34747010312021    4.69713973828880    1.80583832999009
C         0.40896555259146    2.36394713395027    4.03771974459104
C         0.63414507032454    2.48002215498200    5.40596782769871
C        -0.27950850516854    1.97618208031052    6.31330979808421
C        -1.42617127918064    1.34320107561209    5.86226453012795
C        -1.65029848833149    1.21104765305409    4.50168169128614
C        -0.73856002254200    1.71528700931197    3.59204067104269
C         9.06453484543639    5.46106515276116    5.76977977823862
C        10.20585076667487    5.19800563695143    6.52261308288805
C        11.45719052922757    5.49589272043918    6.01691103655285
C        11.57941167376913    6.06406505912256    4.75839055617258
C        10.44669808167182    6.33380340669550    4.00889656870303
C         9.19130096737983    6.03619685122431    4.51214721037609
C         7.52891782370081    3.35473999756540    6.95621693977469
C         8.33911160228774    2.46540798431899    6.25741925676069
C         8.29782382662014    1.11193727931333    6.54148121496731
C         7.43509477145350    0.63081849796124    7.51299835290631
C         6.60914099528414    1.50801565908916    8.19898287838462
C         6.64913296410094    2.86051008421460    7.91756888784701
C         7.51614511255580    6.04884949873276    8.02198379598015
C         7.95833364583080    5.51780371796530    9.22788412686477
C         8.03918317796224    6.32145858725691   10.35186585773111
C         7.68626516161705    7.65857966640824   10.27979640766040
C         7.25120294872746    8.19494887929245    9.07827318892388
C         7.16625198843044    7.39431242365055    7.95460219464818
B         3.05791986432278    5.73292898109323    3.33817286762328
B         4.69816852998848    6.01124914880781    2.92582953476833
B         3.81600820484376    6.92447926839589    4.26816479480837
B         3.13023237298170    5.36958258461071    5.03528902568887
B         5.83464678209678    4.99159792871933    3.75532510061373
B         5.56228697994448    6.68689639472582    4.33978604899783
B         4.49645042281203    6.28896889885100    5.75908262347308
B         4.47878010919696    4.50030380012853    5.57473718152553
B         5.90221629737096    5.36073163409913    5.38271035958222
H         4.44313076978569    1.93143870772556    0.62637830881156
H         5.89969210309594    3.31977646507592    0.82506509451039
H         4.08588920358951    3.85725063232046    0.14199179422272
H         4.55350394148578    0.42381374026391    3.63475262471179
H         3.85403757627219    1.11157589323737    5.39039475692799
H         5.79373708044591    1.32969177573441    4.93411951462539
H         1.65659570984491    0.22917393403548    2.64804279939926
H         1.64770474469658   -1.29310726544953    0.70608194642450
H         1.47773008212313   -0.37576037931024   -1.57879738684737
H         1.33497152539380    2.06382814819942   -1.91584823940522
H         1.33874021035965    3.58322037848556    0.02272866146775
H         1.73717952450974    7.90533141855462    2.19104447035933
H        -0.47221135617625    7.99622921906994    1.12579720950421
H        -1.83078125861407    5.94706023148616    0.90013207154732
H        -0.93379205360029    3.79413589734063    1.69964070757442
H         1.53480346596305    2.97097805046794    5.74726507215818
H        -0.09729223897886    2.07335604914480    7.37390640363021
H        -2.14200131371188    0.94795742963356    6.56836904232943
H        -2.54072155815164    0.71113299455772    4.14739017847123
H        -0.91528563594793    1.59056453512825    2.53271111531402
H        10.11011093007027    4.75617321406919    7.50482927309037
H        12.33955192657491    5.28734888655489    6.60424548055565
H        12.55799147826326    6.29731853331741    4.36545358460611
H        10.54089101410804    6.77885767811375    3.02950377525609
H         8.30379807877843    6.24313328689024    3.93429557900066
H         9.00458794749154    2.83773878402764    5.49133222759549
H         8.93578640675336    0.42882760968750    5.99963720433076
H         7.40202625812251   -0.42627610236457    7.73143433989114
H         5.92961549754394    1.13313272917840    8.95029875367979
H         5.99849411814065    3.54591521931382    8.44211332406823
H         8.23607189450416    4.47499001034839    9.29362903081569
H         8.38072746442642    5.90233219047380   11.28728837740262
H         7.75042497104189    8.28137488137335   11.15968750640284
H         6.97641999556920    9.23755931317552    9.02018934869032
H         6.81870954262907    7.79974884879516    7.01530931418936
H         4.90773117864878    6.33400070391812    1.80436372347199
H         3.32542720611311    7.99961436241272    4.23450726092344
H         2.06762291246908    5.25982369389081    5.54825650995357
H         6.75708003765013    4.49462873679317    3.19016805372225
H         6.29792857370871    7.60621265394901    4.20174423635306
H         4.36686137883393    6.86561740266518    6.78442494005126
H         4.40694164933566    3.61942571551329    6.37428545032775

