43
CSD_code = JAZCAO | q = 0 | S = 0 | Stoichiometry = C12H24FeI2S4 | MND = 6
Fe       -0.00002431122970    0.00004335739170   -0.00006401808904
I         1.25377549920009    0.42120259190354    2.22107190495935
S        -0.32756118606666   -2.12634091582566    0.76161316518005
C        -2.13078869252531   -2.44197332264240    0.74088526085493
C        -2.83944608579966   -1.83619007160251    1.94604692538591
C        -2.33292878845128   -0.44984453549375    2.32348704789621
S        -2.02763481626147    0.60159253133930    0.85632795124060
C        -1.97993175620033    2.20144220666203    1.73500979178040
C        -1.61558798131585    3.34667010470544    0.80257752525430
C         0.13322938558234   -3.39770822660389   -0.46531412937669
H        -2.52403734348435   -2.02454112786109   -0.18673153763075
H        -2.26050569074366   -3.52366656567120    0.72853991441813
H        -3.90621280635752   -1.79188545466337    1.71340665609816
H        -2.71097632412133   -2.48289792754527    2.81740586908696
H        -1.39513335589995   -0.52000398479751    2.87574113803386
H        -3.06945533309782    0.06971331022818    2.93555813120199
H        -1.27108044070455    2.12397178421291    2.55965044635719
H        -2.98624971183075    2.34615318080858    2.13038540706716
H        -2.20125550453239    3.27354526028697   -0.11818149888938
H        -1.88478463529454    4.28500872759721    1.29519758501996
H        -0.47861722555771   -3.25797494055257   -1.35673948877313
H        -0.11200689866898   -4.35321224849276    0.00024589974754
I        -1.25507581551032   -0.42282394131802   -2.22413927452955
S         0.32775689810320    2.12635562900043   -0.76120160747628
S         2.02795543792483   -0.60154154696135   -0.85600028112545
C        -0.13320218474044    3.39787711269051    0.46550077191683
C         1.61559805826992   -3.34657657163990   -0.80247581460879
C         2.13097102040524    2.44205847236156   -0.74076216703902
C         2.33297040711065    0.44982607077485   -2.32326247125511
C         1.97995651891921   -2.20129149863701   -1.73483414666258
H         0.47861474552845    3.25824512616561    1.35696508772680
H         0.11200908230931    4.35335086840331   -0.00016337732404
H         2.20130019663969   -3.27351306431249    0.11826709601818
H         1.88474028871838   -4.28490691640045   -1.29515207532432
C         2.83952530899213    1.83619081509174   -1.94594173958057
H         2.52429629338999    2.02470619765470    0.18686313580182
H         2.26064830593841    3.52375857382823   -0.72851995603553
H         1.39512317932374    0.51997477347860   -2.87541364862008
H         3.06941828554831   -0.06974034344124   -2.93542088926572
H         1.27106832147153   -2.12371713649316   -2.55942041585296
H         2.98621408624259   -2.34607249799344   -2.13030873164276
H         3.90631064377121    1.79188064022035   -1.71337089767361
H         2.71101492500536    2.48285550414340   -2.81732854427092

