49
CSD_code = JAZDET | q = 0 | S = 0 | Stoichiometry = C10H30Cl4IrP3Si | MND = 6
Ir        0.37161504419316    2.64731059162166    2.85415640500145
P         2.16963128142175    2.60063546797169    4.37929102794259
P        -0.35843168349317    0.47212452441655    3.33779815451167
P        -0.97434637384662    3.24769666432816    0.99072380392058
Cl        1.48121356861927    4.60694592259562    2.09919181238556
Cl        1.54405115260530    1.13517659935695    1.27711635471839
Si       -0.98170089358904    3.89786550307503    4.34397875394666
Cl       -3.03981723962549    3.56587813503324    4.02610040824412
Cl       -0.81246174114527    3.37227375859216    6.37682980467099
C        -0.89862738663756    5.81563496488553    4.50356130538259
C         3.73913590620044    2.16503403004352    3.55874669678026
C         2.19642489002695    1.57540548166506    5.90313896858393
C         2.59528069331542    4.20694713488307    5.14213502457897
C        -1.33432863741531    0.25245599835582    4.87860718524772
C        -1.47115405568356   -0.36832221792947    2.15746470922444
C         0.91597043949105   -0.83680964046266    3.53160924281897
C        -0.07636047007592    3.19844728750138   -0.59613969822897
C        -1.59267607518035    4.97093674083013    0.98742165836538
C        -2.53185993577134    2.39295109272713    0.52699678625689
H        -1.10121210625809    6.30398080216255    3.55749793618614
H         0.08772375566623    6.13163993351767    4.82660159055008
H        -1.62471521428927    6.16959231442062    5.23192787663272
H         3.91533632913686    2.89549063027388    2.77009220911289
H         3.66307454296179    1.18224539059706    3.09789106815597
H         4.55911349515255    2.18410323613795    4.27680710342329
H         2.05154309999570    0.52042696893504    5.69338830125447
H         1.39715040728184    1.91942376971723    6.55621111348634
H         3.15444724273320    1.71335024826825    6.40356325974619
H         2.66480083329194    4.97449945497119    4.37537363123606
H         3.55097170966572    4.11426693853660    5.65776443938593
H         1.82166860624023    4.47539578748573    5.85772952179212
H        -0.75187458030545    0.57271250221492    5.73891268915919
H        -1.62662480704852   -0.78980413195317    4.99878221396876
H        -2.22601811338994    0.87253599654701    4.82293284977302
H        -2.44200360315948    0.12052312204540    2.15672746750356
H        -1.58642238333996   -1.40721135236242    2.46822473162064
H        -1.02865319785323   -0.33391803589069    1.16437481410285
H         1.87105113024043   -0.41139827505143    3.82503143934278
H         1.05443862763190   -1.32014335733363    2.56706159575655
H         0.58802242340477   -1.56431975565995    4.27340901008147
H         0.23321331073749    2.17765769929040   -0.80926303142308
H         0.81272462186201    3.82097486449055   -0.51795085404177
H        -0.72401088293712    3.56851574841510   -1.39134089098113
H        -0.77598889827880    5.65548404856320    1.20194346516614
H        -2.37065704187996    5.07663418956719    1.73924244251302
H        -2.00618335862658    5.19669118597348    0.00478078823905
H        -2.32128807845397    1.39097770683457    0.16441755292225
H        -3.02226308831187    2.96012661710655   -0.26340722186998
H        -3.18972326527771    2.34425771268684    1.39184448285390

