46
CSD_code = JAZFIA | q = 0 | S = 0 | Stoichiometry = C19H20Cl2N2OPdS | MND = 4
Pd        8.45980992458279    1.37970531488740   15.95914204969950
Cl        7.36444341186272   -0.48806755072568   15.42449987261412
Cl       10.36425776969030    0.21589222370217   16.23825964459310
S         6.59432296948505    2.77035820182365   15.36882600438591
N         9.48000638508376    2.99360292845330   16.53870183148300
C         9.92493000723690    3.91275281885697   15.53038763550132
H        10.05679451981863    4.92548846436584   15.94474320123009
C        11.28435103429630    3.35934554154336   15.06372543694582
O        11.43282559046851    2.84587678458958   13.98126604226205
N        12.28970840891656    3.49330253698898   15.96886007279067
C        13.58711044791716    2.98037988089052   15.56101126086482
H        13.40803696433364    2.10815184939431   14.93275915805475
H        14.15540839632481    2.68711833715255   16.44009389997887
H        14.14490256915293    3.71797915985769   14.98009579188431
C        12.18369297769410    4.13419785481584   17.20756516430507
C        11.09905695281600    3.91611892316712   18.07716911354804
C        10.00657105469268    3.01529091117405   17.71686243710651
C         8.95685113206632    3.91964574963477   14.34277740822630
H         9.30769333455798    4.65968534588705   13.61971496555418
H         9.02297222278144    2.92867451360210   13.85690579148173
C         7.52015652433784    4.23007806702356   14.74315384340492
H         6.94933052746791    4.60393149432757   13.89332301336499
H         7.48420848621615    4.97038530533177   15.54387747597056
C         6.16303317298457    1.99214203852323   13.78873598381088
H         5.45617386565428    2.63053923867426   13.26364881482039
H         5.71311601990465    1.03350501654975   14.03732451533196
H         7.06167608900094    1.81706379933952   13.19804707983974
C         9.52751209402662    2.04164078952025   18.70853772313071
C         8.17573143506080    1.65804711163240   18.74488212011822
H         7.42153765167652    2.23099312095226   18.19896227742182
C         7.77290060751526    0.63034824489616   19.58123082283297
H         6.73375918182552    0.33668853512748   19.60260370322845
C         8.69740600910296   -0.02198644495017   20.38374781749214
H         8.38198883294262   -0.83992800398572   21.01349093940449
C        10.02188633452845    0.38020703449725   20.38011254478661
H        10.74125298529914   -0.12031633957960   21.01039608074550
C        10.43765020897442    1.40632266536989   19.55109970284347
H        11.47958336763302    1.68729840456857   19.51791034166293
C        13.23236962622848    4.95264442148150   17.63318748675973
H        14.06777617977225    5.12464563224324   16.97326014253343
C        13.20644643290011    5.55404156799545   18.87420357690075
H        14.02340280160636    6.19182969349257   19.17513366963548
C        12.13823127744387    5.33677691562506   19.73419504514014
H        12.12102756719205    5.80116186780653   20.70766033608125
C        11.10361241226411    4.51742495591675   19.33894992212377
H        10.27028423466327    4.33151507755714   19.99995823810403

