60
CSD_code = JAZFAS | q = 1 | S = 0 | Stoichiometry = C22H34N2OsP(1+) | MND = 8
Os        8.43562195842836    2.53911291516582    1.29807180351457
P         7.36670912602604    4.56599228094077    1.81305739405440
N         8.34183115467113    2.73389290747209   -0.61614823294431
N        10.15037291908323    3.39491688046987    1.32033639513874
C         8.34897324744680    2.44418774656698   -1.73614026245669
C         8.33130248029073    2.16283685379388   -3.13731725010665
H         8.52242463554828    3.07509946523446   -3.70210314111085
H         7.35752797227136    1.76532601659857   -3.42349072701455
H         9.09964511225575    1.42853180813761   -3.37823015649873
C        11.29156098751098    3.57814630733979    1.37434257399010
C        12.68760777497591    3.87799990465044    1.44763011177292
H        12.88755427294544    4.50953591899656    2.31415071099423
H        13.00527265900421    4.39979513858760    0.54448625418573
H        13.25825071656162    2.95396626708254    1.54205306276010
C         9.35084254602626    0.48991559083746    2.22969466615485
C         8.56251884943906    1.27129923843770    3.15064348546172
H         8.86260896247585    1.48441834909494    4.16696861147988
C         7.21638617296396    1.23831114714055    2.68438738445527
H         6.34389871674682    1.52664472121106    3.25533822868276
C         7.18509468026959    0.65045329949497    1.39948122021333
H         6.28952615682999    0.36245922610302    0.86728105643940
C         8.50045852150581    0.11706398495812    1.13353815359230
C         9.00502987077346   -0.67809170953713    0.09564298042846
H         8.36206043379514   -0.98139147524958   -0.71886593230712
C        10.31651939493610   -1.08620296626562    0.15453875627220
H        10.71718451344351   -1.71475545247613   -0.62615149712886
C        11.14716078170798   -0.72084464138584    1.22381873522778
H        12.16534085436885   -1.07913367693489    1.23847993027749
C        10.68465493324708    0.06081648333762    2.25590703550182
H        11.32243488596616    0.32072549180310    3.08901711631679
C         5.50448339488901    4.44470194423534    1.68658430927484
H         5.26350945996825    3.74727844682057    2.49871516025226
C         4.75062505019240    5.74827288029432    1.92902432014031
H         4.89409044083482    6.44329577820807    1.10692952087857
H         5.05476578999521    6.22723911446122    2.85583068131019
H         3.68512012419357    5.53568088143393    1.99750347059488
C         5.05803420586342    3.78623558401637    0.38332307227321
H         4.03169879484151    3.43894739064412    0.48244747258891
H         5.69143196905270    2.93073885797048    0.14971140569915
H         5.09584995844011    4.48197157344413   -0.44838719047577
C         8.00913703345745    6.00548948131222    0.78525756152779
H         9.08491530923023    5.78738830144871    0.72161427221709
C         7.82857441872049    7.40407518845078    1.37237801822830
H         8.19237370462885    8.13078522788451    0.64800271994245
H         8.39739105036870    7.54350407984164    2.28639099930721
H         6.78518845677669    7.62905243152321    1.56859279295275
C         7.44624598081374    5.95769673381791   -0.63385490680298
H         6.42703177258030    6.33188161476584   -0.65959413879148
H         7.46662529345154    4.94218857370122   -1.02025555796171
H         8.04641981638071    6.58703182636766   -1.28780912607701
C         7.63391261644268    5.17838982383613    3.55926913961696
H         7.24102445482638    6.19897888105351    3.59401783934093
C         6.91228774934489    4.34851382777178    4.61538472278027
H         7.22717583560615    3.31007689164212    4.57299085226841
H         5.83242525334283    4.39870864894543    4.50696233296775
H         7.16121351524098    4.73322470695073    5.60270682893883
C         9.13157880785193    5.20553534872448    3.85376266070604
H         9.31193088006114    5.64994312747617    4.83032882907115
H         9.67577120503826    5.78049665158977    3.10851429950765
H         9.52829236604495    4.19184815972361    3.85893917036770

