45
CSD_code = JAZSAE | q = 0 | S = 0 | Stoichiometry = C20H18MoN2O4 | MND = 6
Mo        5.52926981886045    1.07591738892532    3.60740624274808
O         4.74362545530304    0.93069786802239    5.05734511079267
O         6.41568157223673   -0.25200825406391    3.17454162007449
O         6.90396129417450    2.15614598506252    4.10425392909665
O         4.06883118379535    0.75245316912850    2.50360984487909
N         4.54930573727885    3.35845178329184    3.49967883610468
N         5.99087983042509    2.13406390533015    1.51460103852260
C         7.24744094988532    3.27180478763727    4.72551545672219
C         8.59135079108739    3.52023473265327    5.03256315025822
C         8.96749554493206    4.69030122127371    5.66105302962790
C         8.01670478962400    5.64493466267354    5.98430735226899
C         6.68582661497165    5.41353035108048    5.68269595221721
C         6.28082459029467    4.23990315862431    5.06301476463316
C         4.82080093491016    3.97766477676744    4.80431749088720
C         3.22680732564579    1.34719039748604    1.68698315283723
C         2.85472108670312    0.76005352338571    0.46954647199394
C         2.01857866893827    1.42971093485270   -0.40071987026537
C         1.53462271495393    2.68957546840803   -0.08340734473654
C         1.88080013081881    3.27387772179491    1.12317786091646
C         2.71879403376089    2.62194530895583    2.01289759557257
C         3.09456434745623    3.20395025713353    3.34612874775665
C         5.08328882573442    4.16463852743782    2.40142750762093
C         5.38150037386538    3.28319978410498    1.21972606987320
C         5.08232366198135    3.64453426434405   -0.08955453292171
C         5.41122385292695    2.77397178415902   -1.11295867615822
C         6.04147292418918    1.57866587286139   -0.79683034731869
C         6.31333915265893    1.30014088447996    0.53222376060048
H         9.31499212566794    2.76058647549482    4.77369410028872
H        10.00679650838699    4.86058456343804    5.89897589296185
H         8.30761917299339    6.56212660306186    6.47242470847413
H         5.94210655677351    6.15417077512147    5.94339501407586
H         4.26319681101106    4.92595514973461    4.89274991436959
H         4.44978154419662    3.28186472095186    5.56637184211682
H         3.23986639448309   -0.22314851170603    0.24008687133023
H         1.74055714559370    0.96708028996312   -1.33605522566821
H         0.88179946141240    3.20938538571747   -0.76739593540681
H         1.48829308538721    4.24854405975458    1.38028773298675
H         2.75536126253185    2.52738107632318    4.14032254322150
H         2.59780107609281    4.18104587411040    3.47523156024676
H         6.02604496459677    4.62159085253611    2.73315712745713
H         4.38962385439587    4.97101319040627    2.11668126085928
H         4.58944175456036    4.58214588676090   -0.29372720045357
H         5.17848232457913    3.02212335459409   -2.13732025110280
H         6.31571691826069    0.87488098499090   -1.56584232168157
H         6.79938283166601    0.38541900292940    0.84741815131422

