119
CSD_code = JAZWAJ | q = 0 | S = 0 | Stoichiometry = C58H50N8O2Zn | MND = 4
Zn       11.14199498254966   10.08292194854028   11.17811048237185
O         9.65277563001016   11.51919114874679   11.01420991797049
C         9.54269001134693   12.15803089255742   12.10746443278783
C         8.77989156040987   13.32376700794623   12.29629678776340
C         8.67988923942807   13.92099020041620   13.54143886418287
C         9.30133270538799   13.41946119194552   14.67463104014906
C        10.08022624399708   12.26787199903601   14.57116587288573
C        10.21126757465667   11.65710501372138   13.29092173219998
N        10.92731259101920   10.56398914231257   13.10745134612863
C        11.53150511945211    9.94560138019091   14.10242524009381
C        11.45859200659794   10.46503652380233   15.41237703446413
C        10.75682927133611   11.61851246238188   15.63276217644206
C        12.17125917393956    8.70089024538602   13.70590931387724
N        12.36902511693429    8.54506204733196   12.38986340452932
C        12.85901639591720    7.38474953180450   11.96456154974277
N        13.06420252888274    6.32284889392622   12.72918430277318
C        12.86499943007127    6.45692228586285   14.04046467708205
C        12.47255406368745    7.67117314252769   14.59373489158877
C        13.18150925388067    7.27155374214427   10.54077651706483
C        13.79304975855064    8.33397426167341    9.88533326490149
C        14.07449577198093    8.25231881102559    8.53388112122807
C        13.72328590546809    7.12604458498056    7.80139033682634
C        13.13818919007427    6.05394943718497    8.47469635904399
C        12.88632727769035    6.11197526083069    9.82922375244282
C        13.93592093931493    7.01013130645106    6.31548834455654
C        14.60201705335583    8.20967970444928    5.64886872893640
C        14.70307334305312    8.02578021239193    4.13602546789005
C        15.35474170764445    9.23036344686371    3.46849612733633
C        13.05864405510017    5.26986949053683   14.88093660726653
C        13.55705173527875    4.08740292252220   14.33962270057488
C        13.71438473474295    2.99785806548763   15.18004814125159
C        13.37096584278136    3.12580120192265   16.51391038212549
C        12.87610271285031    4.34979021793996   16.96849525179190
C        12.48602778736975    4.54139198206900   18.40091230164925
N        12.72759071985071    5.38844131574177   16.16592716047557
O        12.60198183203554   11.48627456661389   10.73777414946783
C        12.68264262333428   11.64685024302834    9.47947272483519
C        13.42083964289518   12.65376959886061    8.83301836474381
C        13.48484683566275   12.72146219813410    7.45162169577020
C        12.84672886584232   11.81568416997002    6.61864905309589
C        12.09266953253513   10.78676829623204    7.18151646407246
C        12.00551918309809   10.71508827836647    8.60127880051936
N        11.32389039886939    9.76485421132466    9.21330469821517
C        10.71437796711452    8.80249712891249    8.55097260656528
C        10.73813418585997    8.78242879914446    7.14020120690391
C        11.40322220487971    9.77304598426183    6.47146549798875
C        10.11467704417481    7.79504820896447    9.41201593454115
N         9.93154263885800    8.15551447638149   10.68978722796879
C         9.47641497524922    7.23682061739699   11.53612997398431
N         9.29350645110980    5.95806054394794   11.24114943710680
C         9.48009247941144    5.58004859958478    9.97698040408336
C         9.83672927881271    6.49631256044621    8.99349099262867
C         9.16709444344237    7.65833372753796   12.90441895202470
C         9.48302421426126    6.83746707475219   13.98267038854751
C         9.23814720483129    7.26510533685472   15.27248634758833
C         8.64450309044445    8.49976678065951   15.51152432943167
C         8.27523824472751    9.28672180430214   14.42640493587875
C         8.54526260553010    8.88243876003091   13.13386787252332
C         8.35818643232949    8.95657410857222   16.91102850721662
C         6.94975312439475    8.53036897403654   17.34226605921223
C         6.62203991519587    8.99410355506082   18.75896788868110
C         5.22233075884670    8.56713181179500   19.18315262153944
C         9.31266276389829    4.15679618860686    9.66180888257435
C         8.86591523151817    3.26074006457991   10.62984313250968
C         8.73248643605148    1.92823452959280   10.27663128272598
C         9.04736314697599    1.54278808516970    8.98601191296287
C         9.49015353115285    2.51049647494524    8.08198527403650
C         9.84662576635863    2.14696542814681    6.67441024710747
N         9.61618889669720    3.78120075683037    8.42019125942077
H         8.26475664177999   13.74645772560874   11.44727038786585
H         8.08018527171703   14.81656561708179   13.63502321400491
H         9.18523817926886   13.90954134566072   15.62968005642006
H        10.70309655342702   12.04556903991813   16.62482867263074
H        11.96990906611372    9.96563867235358   16.22022726689855
H        12.34018890130856    7.75931468282203   15.65720777583650
H        14.05939875793313    9.21868685261051   10.44297712156844
H        14.55642939574499    9.08972917754941    8.05545673460635
H        12.87149307453981    5.16360641019293    7.92251495314187
H        12.43394863414217    5.27686337162866   10.34320373648040
H        12.95858245805418    6.84597259238178    5.84972063305125
H        14.53280392995830    6.11371645410537    6.11887159110515
H        15.60466344927306    8.34749743686329    6.05912607093013
H        14.02328159963857    9.11141657001262    5.85642589927393
H        13.70218013035737    7.87996543247497    3.72220891135250
H        15.28577019877870    7.12824129502716    3.91477719168768
H        15.41074317472435    9.09049477420769    2.39140755661363
H        14.78137435561030   10.13257401372590    3.66955321801498
H        16.36325929794217    9.37723490486702    3.84861329678028
H        13.80756690640852    4.05149826815519   13.29241917497596
H        14.10027385473889    2.06265173075637   14.80010150570305
H        13.47995169890620    2.29906063813905   17.19956774589375
H        11.69780941594626    3.84218322391513   18.67507349007568
H        13.33918442027745    4.35924496676256   19.05205217572140
H        12.13238833308963    5.55691011995643   18.55105521158426
H        13.94457963390937   13.37833253638275    9.43763033254316
H        14.06682007666086   13.51497383665317    7.00211826866930
H        12.92997215413290   11.90072975402700    5.54528689326862
H        10.21411000254106    8.00697265226996    6.60347277086580
H        11.41725848978841    9.79038779094327    5.39019810095511
H         9.96106888895913    6.17088140577764    7.97616831733598
H         9.94562163509166    5.87942876969017   13.79744362281536
H         9.52062169149096    6.63656436850758   16.10497134706306
H         7.79064584067100   10.23733522909230   14.59797868968692
H         8.26579999850569    9.50128556250069   12.29505634091322
H         8.43451803040082   10.04464589057304   16.96458364505496
H         9.08829272829042    8.52666440966929   17.59995837846815
H         6.87275478475586    7.44201473455228   17.28666108524587
H         6.22157422399602    8.94863453204617   16.64397948997321
H         6.69979457174774   10.08257546968248   18.80871112635747
H         7.35472046175471    8.57787679304730   19.45451094439510
H         5.00711456386942    8.90789935052940   20.19322608438374
H         4.47626777337642    8.98769893519588   18.51254963984173
H         5.13022368679249    7.48340096806151   19.15921817865815
H         8.63541145571890    3.62351936043791   11.61773765924080
H         8.38722952766910    1.20104282783949   10.99765630996076
H         8.95580748892984    0.51351547740300    8.67344787004663
H         8.98577853973313    1.71512466374990    6.16681643559322
H        10.16986440552414    3.03396320235527    6.13807620832682
H        10.64773826483254    1.40978319632345    6.66547390951190

