47
CSD_code = JAZYEO | q = 1 | S = 0 | Stoichiometry = C18H25FeO3(1+) | MND = 10
Fe        1.47970414556861    1.84903493845281    4.43970870942255
O         2.90847910589367    5.09976859107865    6.18501505250354
O         2.65277368142568    5.17925939598902    3.95325719016213
O         1.39004821849181    1.02423470956101    7.15702803194936
C         1.05125254442329    1.40926393204120    6.11553931408702
C         2.33314039759584    4.74811820573062    5.03841274693080
C         1.26603828279342    3.75480626877700    5.24704282418244
C         0.37540158338678    3.53775513562134    4.17052718731395
C        -0.39642611431772    2.38497146498472    4.19434586579969
C        -0.38031646597669    1.57280403632784    5.44706094988735
C        -1.06851304103752    0.22620536045805    5.30840380754777
C         3.93139258680599    6.08904491464818    6.11502398068846
C         3.51504500966387    1.85927548241189    3.86069042090598
C         3.22819435015107    0.69489798405450    4.59973707969613
C         2.21261121626619   -0.03690908978084    3.90079755475525
C         1.84509076430653    0.70737030298074    2.75040759461185
C         2.63294245948751    1.89053803606884    2.73062055423936
C         4.59488743765048    2.82061835491345    4.17705073412649
C         3.94033226582358    0.26766833282755    5.83029945500981
C         1.73632971516591   -1.38520178228865    4.29484934640278
C         0.82466660332615    0.32856103517866    1.73985838967457
C         2.61454016495389    2.95089987675675    1.69809235536758
H         0.95085448461860    3.70252022828469    6.27913603078862
H         0.44888303994062    4.14551591270030    3.28226285440226
H        -1.07123959396362    2.11578451544235    3.40012353567959
H        -0.82998386924807    2.16198087919633    6.25854598076864
H        -0.86001814331817   -0.41211359294159    6.16283204676099
H        -0.73494834301754   -0.27409274253007    4.40598243164387
H        -2.14616098559741    0.36396898461418    5.25014139768916
H         4.17310334434671    6.34857539381899    7.14166517854449
H         3.57321184866387    6.96433312412924    5.57127401720126
H         4.80978316791334    5.69132095252519    5.60427681907288
H         4.45554732027860    3.76022013647656    3.65368528814740
H         5.55255093342551    2.39968853455958    3.86812555697302
H         4.64082438295467    2.99819829779725    5.24858434559080
H         3.41533534426495   -0.53352905615613    6.33812753500514
H         4.04020474674077    1.10489145479711    6.51539197983669
H         4.94104560011451   -0.08176834684296    5.57843774180476
H         1.46193151817884   -1.41241331753471    5.34667049848536
H         2.54441433294071   -2.10328408674341    4.15196347459631
H         0.89457889340658   -1.71211777123933    3.69324867862035
H         0.35592109006766    1.21255446090617    1.31839427558429
H         0.05325083506468   -0.30173766967806    2.17224688020599
H         1.28936809668028   -0.22412503576389    0.92380991714820
H         2.70811542536270    3.92980903256962    2.16281892279706
H         1.70107672336216    2.91829731159338    1.11295025312896
H         3.45823489497155    2.82573691322184    1.01963521426049

