47
CSD_code = JEBCUO | q = 0 | S = 0 | Stoichiometry = C18H22Cl2N2NiS2 | MND = 6
Ni        1.47386090863133    1.00813817719967    2.87027121744002
Cl        1.47214391980707    1.82965564603807    0.91926498304779
Cl        2.63617940246153    2.62093418101854    3.51292699212818
S        -0.85152569281723    2.11719600876870    3.53757298230773
S         3.59479133272857   -0.50923429249106    2.53227033049270
N         1.51259697577491    0.21467147264045    4.82349390515082
N         0.28457284120820   -0.56216772864343    2.12563148577031
C        -1.44046454713780    1.28442081802173    5.00119758715523
C        -2.79976376155579    1.05177755476351    5.16213222990997
C        -3.27337339878146    0.41361956361379    6.29305948947661
C        -2.38799904128885    0.01688997486490    7.28079172612532
C        -1.03495234564794    0.26279246833471    7.12782356415204
C        -0.53961653026158    0.89943385491090    5.99617638813296
C         0.94120601639206    1.11606806632660    5.85147382185055
C         2.87280482569104   -0.19436278671397    5.18128335036865
C         3.43564031416072   -1.22825807117407    4.21844661702886
C         3.09590562006382   -1.83780959660644    1.45095153261354
C         4.07700588743951   -2.24807296852750    0.55419072610197
C         3.81548537439266   -3.21326498464391   -0.39732589264947
C         2.55718320279692   -3.78677614919498   -0.45322626073726
C         1.57719705690481   -3.37053012187969    0.42814489363170
C         1.81433341367096   -2.38788550643543    1.38496444547875
C         0.65990246144276   -1.97841486750806    2.26530903334585
C        -1.14726478304632   -0.39059028208432    2.37780474075650
C        -1.59122650494435    1.05776383937414    2.24792013258024
H         0.93458942604067   -0.63011631995039    4.82664022711689
H         0.45523392584843   -0.28407691006638    1.14909514690722
H         1.41959778786785    0.91772611007009    6.81927723617758
H         1.16569634105302    2.14818664003868    5.56413248312870
H         2.89492882768536   -0.61953492312226    6.19839301522854
H         3.50336879950292    0.69982913003949    5.16028257254426
H         4.43933985202255   -1.51436423677361    4.53208446867756
H         2.81706199802645   -2.12214323969001    4.15909317954701
H         0.87637747929437   -2.19402684903173    3.31884690313611
H        -0.19926731708660   -2.60879947682895    1.98950365538552
H        -1.37517071267118   -0.75155237088459    3.38953737901392
H        -1.73707484132302   -0.99545859251041    1.66873337468010
H        -2.67659974926897    1.13096460017706    2.29638309895850
H        -1.23317048952835    1.49289172452582    1.31407717471054
H        -3.49026873767009    1.38397782516320    4.40244665642041
H        -4.33232810763227    0.23810981357171    6.40758852736718
H        -2.74946195695412   -0.47719420353122    8.16976272363432
H        -0.34728020251314   -0.04182193883623    7.90450649637721
H         5.04935118120382   -1.78549544376726    0.61616205834524
H         4.58774759521950   -3.51731422894440   -1.08686996922953
H         2.33294046396645   -4.54706177650551   -1.18571196811206
H         0.59236548883165   -3.81291960312730    0.36668553832893

