47
CSD_code = JEBCOI | q = 0 | S = 0 | Stoichiometry = C18H22Cl2N2NiO2 | MND = 6
Ni        0.95233375778127    1.66599822829601    3.73195309099427
Cl        1.00065270257752   -0.18386061989929    4.99045539298415
Cl        0.90361971839507    3.51596860318201    2.47356531558741
O         1.56961832558130    3.03418005235194    5.36601208467567
O         0.32606392055697    0.62656333770689    1.87449431391256
N        -0.87499429671569    1.81074868673833    4.10607990281336
N         2.78152835584109    1.43734054659688    3.41505763895506
C         0.76868670494612    3.02170745051738    6.46884323845863
C         1.25624151390897    3.00887932124340    7.76965773448359
C         0.38527029331365    2.99788015298443    8.84523026853832
C        -0.97973100861032    2.99810152040265    8.63463750657902
C        -1.46840499977335    3.00846698190374    7.33914572911866
C        -0.62227509287515    3.02392481921433    6.24184595940615
C        -1.21107626457312    3.03733674773597    4.84914650706957
C        -1.60153688266736    1.61697539650411    2.85022242337130
C        -1.05230252822701    0.38770919003045    2.10711202837181
C         1.15374391135352   -0.37419431685039    1.46066333425921
C         0.69905549676225   -1.60564762249227    1.00600613028711
C         1.59598175777302   -2.57795934643525    0.59901347057095
C         2.95454059493156   -2.33281241081990    0.64277539872367
C         3.41059823927487   -1.10718202702766    1.09785087628005
C         2.53774352384234   -0.11209151721263    1.50792234345931
C         3.09154231230519    1.20859660111307    1.99338698277053
C         3.48358351995589    2.55985972349124    4.03930956335360
C         2.96100653591543    2.77988187061514    5.46877674165588
H         2.31945199952639    3.00829507685084    7.95085514235324
H         0.78209148313782    2.98804175065530    9.84912419442375
H        -1.66243988075863    2.98619748781126    9.46999097736949
H        -2.53688728576462    3.00540949615820    7.17583397097694
H        -0.35868244701645   -1.81263673657989    0.96594566079876
H         1.22451134959813   -3.52906050820739    0.24857200925275
H         3.65754897765533   -3.08895300591419    0.32963398432953
H         4.47417730085981   -0.91785902815116    1.13444891126988
H        -1.07650427958869    1.01283606946088    4.72065259288077
H        -2.30361753145439    3.12982152327284    4.92749470991365
H        -0.82571469538378    3.89280863204291    4.28310140184177
H        -2.67688237666794    1.47678579795768    3.03030849703913
H        -1.44954257746498    2.50182283529712    2.22507066036609
H        -1.17847161113199   -0.51309598394278    2.72406796071086
H        -1.58784112292288    0.26309978072166    1.15710703164789
H         3.02652712776396    0.58057886426184    3.92587785006964
H         4.18165648479115    1.20894764819988    1.85181294221264
H         2.66202183282091    2.03467050180845    1.41562076941951
H         4.56737062985570    2.37974345326549    4.07732008881654
H         3.28475539338033    3.46026127219410    3.45053074660820
H         3.47744061636149    3.63648196182980    5.92087420798264
H         3.13464050082918    1.88043174111678    6.07609171303559

