79
CSD_code = JEBCIC | q = 0 | S = 0 | Stoichiometry = C37H35MoO3P3 | MND = 6
Mo       13.52031578914339    0.64681348421675    1.85013046636768
P        15.03413413810999    2.33340379735037    1.25156696052878
C        14.98009098701735    2.77001227917554   -0.54495744582127
C        16.25505613996582    3.54179000023879   -0.75807488088179
C        17.23633049008431    3.03299661453268   -0.00669433464399
C        16.74014576245884    1.81615851654767    0.73548823366267
C        16.31545209305338    4.64652709307835   -1.76013209731158
C        18.66674792329399    3.43652646916770    0.08104002701230
C        16.40415389257626    0.77697584251752   -0.35171944462011
C        15.16241618171024    1.33007765455905   -1.07385342912717
C        15.38218133196627    3.83169579703609    2.18952279123307
C        15.25331731344625    5.13271252961175    1.72217808664518
C        15.54668133455055    6.19224303875460    2.56224011699105
C        15.96206598782087    5.95935402935868    3.86283270658892
C        16.08253530892824    4.66114574943824    4.33500832162134
C        15.78823852226861    3.59980356242927    3.50145786660450
P        13.75806270639638    0.30134250991575   -0.45823491253877
C        14.10869057557679   -1.29079386788429   -1.24962114305814
C        14.22942127332694   -2.41043797344299   -0.43579073034344
C        14.50130642562981   -3.64841032646562   -0.99151117717260
C        14.65468917168241   -3.77158889276674   -2.36192227732551
C        14.53447185927457   -2.65734517046378   -3.17883945331066
C        14.26127468373818   -1.42019299463571   -2.62810032411647
C        12.32685083659586    0.93285925639250   -1.46195675389352
C        11.13353855335695    1.16994935146048   -0.54291410456064
P        11.67003355319274    1.87946436042113    1.07172470688377
C        10.07778541603365    1.89008571526463    1.94687024618627
C         9.01334408451101    2.65100802962905    1.46760098298621
C         7.80141172955369    2.64206264039425    2.13006155557651
C         7.64296701850738    1.88069390044055    3.27798279768254
C         8.70144174386263    1.13344992455423    3.76506318960204
C         9.91744147414808    1.13872899517152    3.10312727124968
C        11.82364044088862    3.66994133801662    0.80034858830838
C        11.68741810824198    4.34543049216521   -0.40642615540011
C        11.82805415715695    5.72288586086875   -0.44570358099505
C        12.08636006510496    6.43302986372969    0.71424027978498
C        12.21925964467591    5.76461285325475    1.92189898683473
C        12.10082037704672    4.38979635872076    1.96063206028115
C        15.01359516255493   -0.45988912628080    2.39184331861387
O        15.88843275546454   -1.12417831090901    2.71871810994180
C        12.34182750870657   -0.86947621775984    2.11004184353449
O        11.68088087134684   -1.79862484203350    2.22518770379435
C        13.31831296465731    1.23205649107364    3.68704487793456
O        13.20608730296815    1.61936286954377    4.75878265504782
H        14.07792440198804    3.26174371847256   -0.91749158630244
H        17.40346008347598    1.43911798265624    1.51590902755099
H        15.40457443818918    5.24372941505953   -1.72988449183536
H        17.16540590370609    5.29812701560681   -1.57552145971116
H        16.41068388507781    4.23697278790990   -2.76760366045758
H        18.93502597903204    3.62054005396424    1.12146350884043
H        19.30787161512809    2.63669512932209   -0.29108473892861
H        18.86336699264012    4.33557516655722   -0.49613066426030
H        16.18764284740107   -0.20052223174113    0.09540870054817
H        17.25047306475713    0.65240314972965   -1.03224209041109
H        15.25362164242849    1.30024170496464   -2.16724820852966
H        14.10451042132064   -2.29834870614413    0.63433151467349
H        14.59278158878013   -4.51626068757522   -0.35539879247853
H        14.86718455281508   -4.73659066312753   -2.79805679020651
H        14.65429561390658   -2.75664015519901   -4.24828042181851
H        14.16610821796150   -0.55226303623405   -3.26814505578866
H        12.07264648673957    0.20336778809979   -2.23927859926328
H        12.63434874147621    1.86449301314459   -1.95066423639080
H        10.68741756735876    0.20443510619253   -0.26449925463415
H        10.35563847999699    1.77830545080390   -1.01838163846829
H         9.14179622664694    3.25876444123919    0.58121005113842
H         6.97769497085264    3.23221322859133    1.75460429592967
H         6.69436117757484    1.87667175609921    3.79454676647921
H         8.58188979349396    0.54650831907430    4.66373189720091
H        10.75204683950977    0.56328818626417    3.48305041179938
H        11.46627051652307    3.80855736329017   -1.31954121138625
H        11.72670236848895    6.24447722873475   -1.38758966533144
H        12.18517951269048    7.50806806899448    0.67647708185742
H        12.42194830592836    6.31592945051679    2.82814379635723
H        12.21641328849927    3.84870070010714    2.89382239136102
H        14.91973664309761    5.31509918057417    0.71180056990566
H        15.44837363487119    7.20588310629349    2.20043013321127
H        16.18831929045924    6.79186430695924    4.51319400153452
H        16.40077819990388    4.48147972781633    5.35149719192332
H        15.86492304664659    2.57491338667434    3.85063871957069

