48
CSD_code = JEBHUT | q = 0 | S = 0 | Stoichiometry = C20H20MoN4O3 | MND = 5
Mo       -0.23131321025004   10.94379791152973   12.46410100483025
N         1.07571700436045   12.51740366578988   13.02238689049341
N         1.98353966323166   12.81596183638842   12.08584866703293
N         1.64825580038705    9.93317475407231   12.19072360829223
N         2.56030616231650   10.63550159208397   11.51122373803605
O        -1.98551184779276    8.70604693204771   11.28651194459247
O        -0.60664644733449    9.81752666237644   15.29441277823604
O        -2.83555863243039   12.51395328088697   12.93650949659484
C        -1.32456741221652    9.52350172667360   11.74347993979284
C        -0.43835763059799   10.21439829239281   14.23136982462827
C        -1.85890483338385   11.93685342786114   12.76953057482825
C         2.09129100698197   11.89397701717941   10.98545975358332
C         1.19746497272750   13.40656682421555   13.98811016064973
C         2.22940474907149   14.30602519558470   13.65951883389677
C         2.72246817384460   13.89945596058079   12.43930026650951
C         0.32991718897762   13.37493093293519   15.19031804754951
C         3.79765160795037   14.46980745170992   11.58773245612510
C         2.23203033498088    8.82373871609620   12.59841679235574
C         3.57128298143434    8.82008635030593   12.16355927061089
C         3.75608627437024    9.99676407007308   11.47175664142441
C         4.95369676646725   10.54298569993018   10.78335867948227
C         1.50902772577715    7.79258939324691   13.38156882301221
C         0.71216864853690   11.60296925697662   10.40634196137751
C         0.60104329801098   10.55766335168778    9.46493984553674
C        -0.56631943076073   10.35401341156292    8.77678522178324
C        -1.64783055020535   11.22301855769149    8.95911001329828
C        -1.53387140017999   12.29051310905299    9.81100523587257
C        -0.36847088027730   12.49090749092148   10.57294230772845
H         2.79847199398353   12.28385435155400   10.24103202091277
H         2.56386446873188   15.14268226653775   14.23828674416577
H        -0.69763258615375   13.16243822925746   14.89656070945225
H         0.64940109835957   12.58031242461012   15.86491701614773
H         0.37456229592306   14.32421097152821   15.71767874469027
H         3.41449239506249   14.74009542114086   10.60292167450863
H         4.19391660572137   15.36365337038601   12.06090383600180
H         4.61566539860010   13.76066525118332   11.45372907373712
H         4.30134092634694    8.05456323301695   12.33081375950163
H         4.73568917201464   10.78251047927441    9.74195301997004
H         5.30937973291253   11.44852651951993   11.27745218620888
H         5.75081148631000    9.80553331535111   10.80866047801751
H         0.46566924434216    7.76302661509578   13.07019190528585
H         1.96702404198439    6.81730715907435   13.23773082951935
H         1.53498989262492    8.03510494315077   14.44372974991301
H         1.45541153517462    9.91397329431500    9.28637855213780
H        -0.64577625329366    9.53463568088649    8.07891643843939
H        -2.55678779067279   11.06790578917145    8.39870837417808
H        -2.34163795829692   13.00328408388407    9.90254543270367
H        -0.21925578367363   13.46938372920760   11.02636667635476

