59
CSD_code = JEBJEF | q = 0 | S = 0 | Stoichiometry = C18H29BCl2N7OV | MND = 6
V         3.71772854536938   -3.48294133748559    3.01927754060263
Cl        5.66639282547053   -3.04622144740658    2.38999566507810
Cl        3.29349091948785   -5.53071851626063    2.29508742733009
N         3.82526384233395   -3.63756264282541    5.92023536262253
N         4.32771497759610   -4.12397418648162    4.77826908778373
N         1.77550244619808   -3.46328334583580    3.74795475098408
N         1.57448232111585   -3.15717521290149    5.03875735525655
N         3.25757289195369   -1.38984075604547    5.07277771866239
N         3.59984185415158   -1.56728334578706    3.79125314839633
N         3.19494844250093   -3.73613896949874   -1.24713090143058
O         3.09200813096270   -2.91199957178121    0.85227999020433
B         2.72217789004939   -2.57794374898245    5.87433684622490
C         5.24844188051831   -5.04050890726911    5.08559608891702
C         6.04856650353577   -5.79533802561896    4.08969083384723
C         5.33077372742843   -5.13915727322718    6.47499058154200
C         4.07344791247702   -3.93483260873438    8.38895681337722
C         0.28347475277870   -3.33762646340270    5.36719317956210
C         3.90933460744136   -0.38031085101027    3.28117878184324
C        -0.27158082973170   -3.09323687311612    6.72460064122664
C         3.65187292666142   -3.58350427664755   -0.00432280306664
C        -0.37211234157249   -3.77542308851189    4.23175243675065
C         4.33720898362875   -0.16082751893075    1.87462810473043
C         3.76768718698456    0.59201302327650    4.27670140941537
C         4.40783686083415   -4.23452263585830    6.97196807492413
C         3.34624099049105   -0.08871946502323    5.40313296273181
C         3.03223006531063    0.44730169580906    6.75393567506101
C         0.39790249138325   -4.23844385451409    1.81932391644177
C         3.85514523030041   -4.57243782369585   -2.21440024282561
C         0.60541472194918   -3.83546879660789    3.23475972970119
C         1.95457368562882   -3.12663926062265   -1.66782096612923
H         2.36957208815928   -2.26414593170835    6.95383251114486
H         5.39057241468500   -6.29117164041724    3.37548237267944
H         6.69090482844516   -5.11334003715153    3.52995289094377
H         6.66424760333257   -6.53539497960900    4.59519375849123
H         5.97403211671035   -5.78391012117561    7.03946569220861
H         4.70240761444237   -4.53113047414105    9.04427182028252
H         4.23386565700760   -2.88064979098975    8.60684756232653
H         3.02995303370624   -4.16676734352296    8.59477392999936
H         0.25300627890644   -3.69139393490022    7.46727808030804
H        -0.16849119845955   -2.04500765875764    7.00029009947666
H        -1.32536369611433   -3.35833167821669    6.73803459287397
H         4.60690384077330   -4.09607554729569    0.18032189228094
H        -1.41113100125148   -4.01828359139218    4.13358773197882
H         5.39569821419650   -0.39889892768488    1.76130254762079
H         3.77084980783167   -0.80792416334088    1.20746035207839
H         4.18173212988374    0.87992771454576    1.59851865422939
H         3.94684300152503    1.64432778647272    4.18295589629283
H         3.22971571123590    1.51564747158365    6.77534727970314
H         1.98579818843504    0.27779842089485    7.00244871965315
H         3.64261938791746   -0.04040182318147    7.51176746011716
H         0.98063412426211   -3.59483727239003    1.16473471850304
H         0.73028508484667   -5.26633177367813    1.66969470613392
H        -0.65771140073975   -4.16716606394851    1.56541652722322
H         4.75895628958475   -4.99520599343691   -1.78216676383351
H         3.19535782968121   -5.38842483349910   -2.51893707231358
H         4.12032988096162   -3.98920725103873   -3.09973027034196
H         1.62276192286267   -2.44253322711786   -0.88908410483579
H         2.10915598794622   -2.57190104539996   -2.59497204003746
H         1.18810981601429   -3.88760020450851   -1.83214875497742

