50
CSD_code = JEBJAB | q = 0 | S = 0 | Stoichiometry = C21H20MoN4O4 | MND = 6
Mo       -1.30966794559542    8.89040677665985   12.20596021884361
N        -2.56436766940676    7.50036969224515   13.32284937263246
N        -3.90488508076827    7.52049475272364   13.30004042776562
C        -0.80331141421745    6.04980955311712   14.28694347361750
C        -2.21116247886295    6.43870215414521   14.02905981750665
C        -3.36023699605420    5.76509543294818   14.47936392634330
C        -4.43170354958233    6.48004338113365   14.00127060331554
C        -5.88928352862054    6.24415327347123   14.16900639040047
N        -4.29462729015845    8.70147755310098   11.28220270858874
N        -3.03930345751522    8.94864309706629   10.88068434448259
C        -1.88593780326653    9.35228903943982    8.72651185510293
C        -3.07829517862936    9.07668656367648    9.56440168651961
C        -4.39937631565526    8.91454616828148    9.11123060940563
C        -5.15912096961786    8.67837143654133   10.23138260611669
C        -6.61995947483460    8.43934377927347   10.36184407359605
C        -4.64547669528929    8.58315725292270   12.67273056311516
C        -4.53232330689199    9.90382059262755   13.42386420985044
C        -4.73947820508517   11.10474750388940   12.75572406211596
C        -4.73658380149889   12.29663270986510   13.45744554754232
C        -4.54328682682387   12.29755138459302   14.82802202730084
C        -4.35596923513593   11.10119370904281   15.49849727513938
C        -4.35743696092166    9.90592370613551   14.80265733760359
C        -0.20587203530119   10.11663895741223   11.19796687103211
O         0.51872318123536   10.84559944806608   10.68620451539482
C        -0.56463854161455    7.40424249506654   11.17595288196588
O         0.02995636621632    6.61661247887694   10.59210041474639
C         0.22000490044203    8.81261785391026   13.38584285407614
O         1.16927425138949    8.85262306584131   14.03051885623112
C        -1.78517759569333   10.48101711996868   13.24694840140482
O        -1.78512016438389   11.46471300423598   13.83435026032033
H        -0.24343897278900    5.98864128649172   13.35462839317674
H        -0.31631052613423    6.78960007312160   14.92114960458836
H        -0.77323190099083    5.08459235055327   14.78641752869902
H        -3.39304562082001    4.87517343101040   15.07384606034321
H        -6.03490287982615    5.36786898815684   14.79441885289250
H        -6.37705973865843    7.09364234844367   14.64828228662949
H        -6.37435899237100    6.06044392275052   13.20938774843497
H        -1.47949844942457   10.33587918728663    8.95863538072883
H        -1.10511689569054    8.61598055293051    8.91283620485206
H        -2.15995025174501    9.32392037798360    7.67483287702101
H        -4.74308562555360    8.96448011698971    8.09840150587441
H        -7.08932182981397    9.18378048153987   11.00571273179538
H        -7.07646445252778    8.50091312793217    9.37800392077118
H        -6.82412141626271    7.44826489270431   10.76909296615366
H        -5.70192161564170    8.28122961572402   12.70023393205577
H        -4.88909055341426   11.11473887049795   11.68518053488293
H        -4.88055743342042   13.22676904894519   12.92908973052860
H        -4.53346223052953   13.22941464372157   15.37201398695570
H        -4.20234996351153   11.09605017941499   16.56686725400712
H        -4.20716682873036    8.97699256752619   15.33469030752755

