82
CSD_code = JEBREN | q = 1 | S = 0 | Stoichiometry = C37H42P2Rh(1+) | MND = 6
Rh        3.91073813743966   -0.31420769963006    9.48311678272616
P         2.34374772264256   -1.96082597589207    9.36252215759220
C         1.63903795578547   -4.50790352285923   10.48853671935120
C         2.80544599054086   -3.56075031659827   10.20892491887643
C         3.91080997090579   -4.34115640140531    9.48310149135672
C         2.54860295672866    1.28569226777018   10.17689356077628
C         2.42479064288936    1.16022303985774    8.81103862380971
C         3.06724806465092    2.06040104830302    7.78712587929387
C         3.28545684579816    2.40846003483498   10.86865531186737
C         0.72227510754604   -1.57548440582826   10.09210315430668
C         0.64172483354422   -1.48532891007692   11.48244365348322
C        -0.54361527972832   -1.11997611125670   12.09074530183396
C        -1.65562851040491   -0.82256877487918   11.31732300020492
C        -1.57434854539475   -0.88408329923638    9.93663241989466
C        -0.38930771174285   -1.25203642803351    9.32214526166335
C         2.00253995702102   -2.38855998321383    7.62889553761777
C         1.02305705127006   -3.29379374004781    7.23220290472817
C         0.85008741086650   -3.57590228725180    5.88836725788924
C         1.64231617690286   -2.95637456244173    4.93496810330195
C         2.61017184880644   -2.04273995102390    5.32252352997997
C         2.78834713749854   -1.76100116694806    6.66376728814977
H         0.82249830319644   -4.00492759437663   11.00042815014097
H         1.25838972246902   -4.94521516310401    9.56924227896746
H         1.98455198088213   -5.32222517164211   11.12319779062686
H         3.20543160072480   -3.21932117072199   11.17467400618198
H         3.44105570081188   -4.99255135241198    8.74018498247920
H         1.80579033183865    0.78210564900662   10.79622866800616
H         1.56330495753134    0.61063737621618    8.42807076441734
H         3.01389391834508    1.56398196803507    6.81474270584104
H         2.47800630763527    2.97939139064362    7.70695321152340
H         3.22620637232547    3.30544356244780   10.25254574287057
H         2.77808410451753    2.63069804606087   11.80878540132216
H         1.51521531017785   -1.70622134037559   12.08284798877642
H        -0.60203943503509   -1.06248557575442   13.16717339887114
H        -2.58152068921033   -0.53721656408068   11.79185498284064
H        -2.43591906835212   -0.64274498781149    9.33301489487326
H        -0.33325722302830   -1.29230474863704    8.24342070901392
H         0.38639458763202   -3.76233679957484    7.96771160351589
H         0.09051192591904   -4.27964287505750    5.58337140000601
H         1.50060971725593   -3.18052708000746    3.88908274185473
H         3.21997285957140   -1.55282917595732    4.57815524513701
H         3.54374047027599   -1.04248475059142    6.98768523244372
P         5.47787472648784   -1.96079608143363    9.60368769596026
C         5.27297878506104    1.28563346314447    8.78929233377846
C         5.39679628428000    1.16017686715236   10.15514552201638
C         5.01616525295624   -3.56072346268398    8.75728742051174
H         4.38056413341386   -4.99254980315220   10.22601919148820
C         4.53616320647266    2.40843017865550    8.09753117282279
C         4.75437208363146    2.06040111145243   11.17904261452111
C         7.09935147003813   -1.57550240477059    8.87410244088056
C         5.81907092339767   -2.38856566624017   11.33730768141176
H         6.01580536244915    0.78206340528829    8.16995979012371
H         6.25828714917518    0.61059674223852   10.53811720770031
C         6.18256229140154   -4.50788871418032    8.47766353979566
H         4.61617597264128   -3.21929572501063    7.79153841590100
H         4.59540913134524    3.30540500151205    8.71365185461238
H         5.04354507997583    2.63068498652999    7.15740910417650
H         4.80772508667397    1.56397763773423   12.15142238205011
H         5.34362755366210    2.97938337232464   11.25922673991729
C         7.17989277822332   -1.48534624160404    7.48376176416920
C         8.21093039352414   -1.25204524688402    9.64405762767216
C         6.79855191295061   -3.29380688772930   11.73398988341219
C         5.03327043726653   -1.76101052000941   12.30244190851252
H         6.99910470620009   -4.00491458144742    7.96577525616963
H         6.56321083041053   -4.94521619591285    9.39695067099118
H         5.83704333902440   -5.32220188758232    7.84299346450370
C         8.36522702958554   -1.11998542334508    6.87545632005965
H         6.30639828012885   -1.70623948116729    6.88336242804836
C         9.39596301219707   -0.88407581869048    9.02956722542645
H         8.15487215905957   -1.29229188884878   10.72278218376629
C         6.97153538905306   -3.57591460503975   13.07782352430417
H         7.43521736219405   -3.76233668571491   10.99847503306774
C         5.21145490416135   -2.04275334154511   13.64368357625832
H         4.27787212136631   -1.04249751504189   11.97852987592196
C         9.47723859331139   -0.82256642443992    7.64887595840982
H         8.42365252094171   -1.06251461000498    5.79902759435114
H        10.25753429617481   -0.64273702327935    9.63318291398862
C         6.17931478047494   -2.95638732902603   14.03122969118935
H         7.73111562430723   -4.27965263222042   13.38281343480934
H         4.60164695856313   -1.55285745335674   14.38805626183160
H        10.40313558259452   -0.53723691091281    7.17434065089823
H         6.32102297642012   -3.18054870109093   15.07711288628714

