99
CSD_code = JEBSAL | q = 0 | S = 0 | Stoichiometry = C42H50N4O2Zn | MND = 4
Zn       -3.64985660572864    0.32624958930746   14.88530174678065
O        -2.14700850719038    1.17783206863134   14.33459415101375
C        -2.84415852774090   -0.85990827474946   12.43862913671579
N        -3.23799274475401   -1.55357535567874   11.32831062703239
H        -2.67347787130404   -1.72201224982988   10.51377291955847
C        -4.55463212845878   -1.90725463984792   11.48236389916746
C        -4.93038550405574   -1.39816899817922   12.74109907745787
N        -3.85293271339819   -0.75526383285180   13.29442885894983
C        -5.44524475079459   -2.60378423973014   10.68357430318891
H        -5.15615252951266   -2.98995669674265    9.71802563713512
C        -6.72336789096489   -2.78145162448995   11.18037672661716
H        -7.44951979032111   -3.31717520322727   10.58776469219817
C        -7.09828050989701   -2.28678483242923   12.42982047727133
H        -8.10721741573238   -2.45441387710104   12.77560213753810
C        -6.21474842982632   -1.59123868410718   13.23136848115492
H        -6.49955388392898   -1.20563144244969   14.19763881142641
C        -1.51400590323320   -0.34687839197873   12.61300405819849
C        -1.23569759125083    0.68177285653983   13.56039032150887
C         0.10380360829174    1.17833103744214   13.61383323310414
C         1.06651429206185    0.61663791132931   12.80608937342606
H         2.07172951815358    0.98920973709809   12.87446777547751
C         0.81102975008265   -0.42407099031035   11.90590411808707
C        -0.48460159025558   -0.87523705592392   11.81951538176125
H        -0.71777816320436   -1.69201617589529   11.15173150600704
C         0.44159372007024    2.30966607201207   14.57967311545539
C         0.16814109017158    1.85360817217309   16.01980511417812
H         0.77231554633958    0.98122226844688   16.26378321848509
H        -0.87945980417356    1.59927454795137   16.14670852766794
H         0.41645444317329    2.65228531565358   16.71594943524653
C        -0.42736812108470    3.52933908232232   14.24385019586832
H        -0.23251270182375    3.86040175056647   13.22529460539087
H        -0.20213904457905    4.34776879912354   14.92463344187768
H        -1.47919620432273    3.27956413608265   14.33511886977100
C         1.90915441833354    2.74631789912836   14.50014831587616
H         2.58149583144527    1.93726808748992   14.77780707999446
H         2.07170574867481    3.56676836235249   15.19647803818094
H         2.16355792478925    3.10038168788481   13.50351523825892
C         1.89608046334251   -1.06178641691472   11.04866708860460
C         2.02046512656793   -2.54590191229221   11.42260900179536
H         2.27975275860976   -2.64648561068416   12.47428427210222
H         2.79773476464679   -3.02121983988274   10.82751872880509
H         1.08809944432349   -3.07754022837498   11.25206909424799
C         1.51589146405602   -0.93120599399129    9.56680368459122
H         1.37679236014230    0.11589654907717    9.30648525041128
H         0.59474506367899   -1.46301862504471    9.34387834698505
H         2.30326726057770   -1.34241612105264    8.93825471504696
C         3.26638390312415   -0.40720243427716   11.24282376883496
H         3.23759381092913    0.64621946372287   10.97498629648782
H         3.99606691556744   -0.89742757429289   10.60096628526869
H         3.60593654262711   -0.50616466774273   12.27097432733885
O        -5.15268504881559    1.17786124119517   15.43602253214468
C        -4.45553312661453   -0.85985927756703   17.33200020965198
N        -4.06168215910333   -1.55345133772017   18.44235942321970
H        -4.62618841867551   -1.72182817549414   19.25691586200776
C        -2.74504196272283   -1.90713138028471   18.28831287023168
C        -2.36930943570874   -1.39812884394152   17.02953746426543
N        -3.44677345003530   -0.75526577684440   16.47617915240718
C        -1.85441229941424   -2.60359869238320   19.08713777334133
H        -2.14348654262567   -2.98970381175467   20.05271857003849
C        -0.57629530574513   -2.78129254971404   18.59032882020069
H         0.14986947132556   -3.31696727117401   19.18296886873928
C        -0.20140532980173   -2.28671302538013   17.34084405057438
H         0.80752678609294   -2.45436096327755   16.99505792259398
C        -1.08495395714915   -1.59122820135741   16.53926094486861
H        -0.80016556707435   -1.20568827901861   15.57295883827987
C        -5.78569089059740   -0.34684541313784   17.15761282486715
C        -6.06399780570692    0.68180796804654   16.21022941250538
C        -7.40349551721524    1.17837467767237   16.15679754092711
C        -8.36620977697832    0.61666389915986   16.96452517856038
H        -9.37142503939871    0.98923645029484   16.89614711125108
C        -8.11072935090951   -0.42406221861110   17.86469175900724
C        -6.81509461777432   -0.87521896151278   17.95108998786073
H        -6.58191391355952   -1.69200582627233   18.61886398893302
C        -7.74127936177152    2.30973917100922   15.19099173340376
C        -7.46783452013836    1.85371654588508   13.75084745656946
H        -8.07202330988524    0.98134660691062   13.50684655474106
H        -6.42023712771955    1.59937252070811   13.62393150151493
H        -7.71614143294191    2.65241879041394   13.05473005920977
C        -6.87229653023231    3.52938752633791   15.52685042634597
H        -7.06714445447247    3.86041954294931   16.54541748734001
H        -7.09752073584181    4.34784116078765   14.84609493982791
H        -5.82047116487168    3.27960364611074   15.43556861573063
C        -9.20883623727292    2.74639996757965   15.27054452392206
H        -9.88119015753893    1.93737077922862   14.99285436987651
H        -9.37137707279101    3.56687998691319   14.57424761694974
H        -9.46323253737355    3.10042929915969   16.26719219296795
C        -9.19578605808875   -1.06180714061255   18.72189962498668
C        -9.32014966753713   -2.54591867447064   18.34793013867586
H        -9.57941628077674   -2.64647365925858   17.29625016847181
H       -10.09742622232676   -3.02126259160763   18.94299094475668
H        -8.38778206404935   -3.07755077884117   18.51846953806794
C        -8.81562749488111   -0.93126519305142   20.20377096250528
H        -8.67654966049823    0.11583125724513   20.46411694084953
H        -7.89447483849342   -1.46306483170085   20.42669003727268
H        -9.60300202312917   -1.34250677869313   20.83230166310310
C       -10.56609454998625   -0.40723681271829   18.52774312639017
H       -10.53732104585293    0.64617971579682   18.79560475192869
H       -11.29578271682228   -0.89748661489038   19.16957639787361
H       -10.90562631874475   -0.50618107641420   17.49958361268928

