94
CSD_code = JEBTAM | q = 0 | S = 0 | Stoichiometry = C36H52ClCoN2O2 | MND = 5
Co       13.14398462248570    8.05817092297405    0.94259516857338
Cl       12.41384811575868    6.09094284105979    0.73186970711681
O        13.74856543476616    7.87417242374812    2.68628543364623
O        11.56279807415520    8.74302115892532    1.63797602164863
N        14.79697366337611    7.61174840223314    0.23629725682842
N        12.63763927706457    8.52954120012927   -0.78189137425505
C        14.71531710759589    7.43968202114722   -1.20802607464676
H        14.21961676072970    6.47091252953073   -1.37079103058090
C        16.02244362735959    7.46249158998015   -1.99791061736998
H        16.53781741656380    8.41268134672411   -1.83508446850160
H        16.67709487330237    6.65096157495465   -1.67734474848013
C        15.71604254060902    7.27847204020907   -3.48279141123261
H        16.64580557333717    7.31428490613672   -4.05326120038864
H        15.26634033525009    6.29526777010889   -3.63521851586450
C        14.76073355765870    8.35419295070620   -3.98407245763797
H        14.54336870104481    8.19241503776287   -5.04112418985134
H        15.23375163729375    9.33449564483718   -3.88737665275113
C        13.45564421106951    8.34355784665503   -3.19061772524122
H        12.81902337921090    9.14979863513682   -3.55958546286185
H        12.93714900277817    7.39301988034296   -3.33193474299307
C        13.76388480957135    8.53754303045922   -1.70664650767961
H        14.27217044285066    9.50750611081640   -1.58110681267597
C        15.87808421339068    7.33187108172998    0.88762485061838
H        16.77527330936252    7.07138906675967    0.33071988689331
C        16.02099339658534    7.31221675915472    2.29634629562629
C        17.29056628704461    7.00775152395839    2.82557344555356
H        18.09047214507673    6.83919524666383    2.12163973811210
C        17.49901611950564    6.92541374536310    4.17516501830146
C        16.38354562444760    7.12414854325578    5.01092113138253
H        16.54091752727850    7.03165440227072    6.07170628625383
C        15.11908818804506    7.40957555798201    4.56267309602722
C        14.90379497097994    7.54680418496021    3.15101185006018
C        18.84646772790488    6.61184319273363    4.80510884099398
C        19.25290547463970    7.76964286663266    5.72749633472733
H        20.22378381344001    7.56915656311555    6.17598649386110
H        18.53207412905554    7.91140112188898    6.52769665775431
H        19.31864462389695    8.69598864259346    5.16051553352210
C        18.73336536593661    5.31410918006090    5.61726829209068
H        19.69762189379456    5.05785776717264    6.05144990077631
H        18.41454635236371    4.49628984095051    4.97457320757842
H        18.01316862065580    5.41221752401177    6.42448965465925
C        19.94944484455914    6.42520838784713    3.75965448964230
H        20.89250806050844    6.21398349906909    4.25979135314500
H        20.07906460418996    7.32584404622554    3.16385802497914
H        19.72458572995043    5.58994336454043    3.10059607769459
C        13.94231672777926    7.54076624774969    5.51838978194869
C        14.34296706333000    7.38386356864492    6.98963096923345
H        13.45444692133196    7.48721292492350    7.60930008908600
H        15.05194728831564    8.15203512176323    7.29223146239620
H        14.76937520467038    6.40210690953517    7.18392413216176
C        12.93732553632658    6.43094503522133    5.18097793123637
H        12.05950839336898    6.51024466424628    5.81782215225940
H        13.39281375711374    5.45448414837638    5.33590437723446
H        12.62194453140536    6.50098743657939    4.14541131311156
C        13.29391044215722    8.92042623028993    5.35496958086602
H        12.45595588352947    9.02218219143988    6.04082649419485
H        12.92986987725117    9.04822640864661    4.34227279384150
H        14.01752270142267    9.70480119092124    5.57210894648596
C        11.42740206480031    8.73056595519661   -1.18760146165212
H        11.23960155428105    8.86713269466013   -2.24981420682362
C        10.28572543699784    8.84321166269098   -0.35649217919181
C        10.41984591928271    8.89158849466460    1.06288831005412
C         9.23335673315104    9.15577445345549    1.82276251233650
C         8.03665169145582    9.25711455622093    1.15944614339932
H         7.14522706300777    9.42923071230360    1.73776251001025
C         7.88775151649693    9.14713185552374   -0.23584559588077
C         9.02607894504110    8.96237502435771   -0.97311523901101
H         8.99502783447276    8.89458596042734   -2.04911972360505
C         9.32732474450292    9.31177919593143    3.33329081198357
C        10.27771017377416   10.47503571389527    3.64845367677959
H        10.37771416006810   10.59787680858668    4.72454507642587
H         9.89097438604545   11.40186363720483    3.22707849991034
H        11.26054759120815   10.28550894230614    3.23021343894108
C         9.86354240131995    8.00768532040330    3.93370957140565
H         9.95787105034631    8.10334626650035    5.01293027718884
H        10.83629850665669    7.77373626275318    3.51726929888075
H         9.18531284298791    7.18563334839694    3.71362827533193
C         7.97775353521004    9.61915728698017    3.99135022383339
H         8.12629341646019    9.73313768127851    5.06335012262285
H         7.26878853094329    8.80831114689001    3.83916179525165
H         7.55242927443836   10.54676772982012    3.61337707274576
C         6.49653845594557    9.24747070091110   -0.83992981018454
C         5.88752820575387   10.61302121619465   -0.49203936441729
H         6.51746194394487   11.41378712553201   -0.87401261415868
H         5.78766538104593   10.74167917094600    0.58195266860089
H         4.89975611582380   10.70744764232852   -0.93846067276842
C         6.51187240363101    9.10594044614477   -2.36437096054084
H         6.92047602466975    8.14307022403898   -2.66144683956447
H         7.09572195886589    9.89972409682931   -2.82480970015996
H         5.49495555847300    9.17249250297936   -2.74592914877373
C         5.62177865097617    8.12484039828508   -0.26467777010385
H         6.06294344502998    7.15572784637342   -0.48706489028987
H         4.62661741541839    8.16183511767721   -0.70318986280976
H         5.52160455309918    8.21264474939632    0.81337367517595

