77
CSD_code = JEBWUL | q = 0 | S = 0 | Stoichiometry = C30H41Br2FeP3 | MND = 5
Br        8.30772096312117    7.73591356343874    8.26200506615579
Br        7.57862633993531   10.33409205403606   10.32315075536711
Fe        6.50351959906422    8.50106801877955    9.41516322504259
P         5.25730956952141    6.92501327876660    8.63957738460664
P         6.43379935101419    7.44752709704528   11.31276297904866
P         4.72948429776790    9.75156709176561    9.09940006217221
C         5.37200892583049    6.11224730569662    7.02099264945460
C         4.49101101972650    6.39274778150810    5.98070896336177
H         3.65539842871320    7.06308410648906    6.13985102568837
C         4.67405799559082    5.79856292826122    4.74533269932194
H         3.98473384329350    6.01291575412822    3.94129159875871
C         5.73888727431674    4.93717251939306    4.53750927148561
H         5.88099717127585    4.48183982222034    3.56862173956193
C         6.62277439890000    4.66168163354537    5.56908863189248
H         7.45597378202014    3.99457461838283    5.40650768734868
C         6.44423170175101    5.24722499450269    6.80726255889234
H         7.13340643039213    5.04160196821892    7.61543622384476
C         5.26118686206230    5.50364796716364    9.77969020008055
C         4.80753730399834    4.23133390688901    9.45104647307804
H         4.53716066036787    3.99616515203902    8.43037346004950
C         4.73275017364800    3.25887857169415   10.43097060551921
H         4.38612443575184    2.26735398323326   10.17942079548443
C         5.10301473362059    3.55407604910820   11.73422553970168
H         5.03493906016169    2.79355507531335   12.49838650116831
C         5.58405087930241    4.81021305195541   12.05731398587141
H         5.90014601725682    5.01301533273251   13.06981500946921
C         5.67347704148536    5.79582275354814   11.08099421231235
C         5.47934014501702    8.19006269185775   12.74335682797938
H         5.62952326736521    9.26907911063997   12.60251711803481
C         5.89302451801223    7.84312898015965   14.16974564963692
H         5.76211533848230    6.78444084716511   14.38228942125010
H         5.25326613781865    8.39668710752853   14.85672684987120
H         6.92196718112923    8.12503031117679   14.37467645483646
C         4.00206869225614    7.86798810217798   12.52535512237199
H         3.72350245518089    8.02829897558292   11.48244859475595
H         3.37480315303882    8.49818739738796   13.15391405020211
H         3.79417400427155    6.82756403509493   12.77111912766073
C         8.03822037045798    6.87708190253181   12.09801155713015
H         7.71946496317072    6.42888794144659   13.04836024478413
C         8.75035340209832    5.80489006385694   11.27880024892342
H         8.10610179489297    4.94974555435902   11.07884927521684
H         9.62051639259416    5.45439265900037   11.83166557042243
H         9.10167658848363    6.20425150973415   10.33122185859401
C         8.98048837572680    8.04184647719043   12.37620811416512
H         9.43179542323515    8.39331351556333   11.45133289778573
H         9.78220357896705    7.71965579168336   13.03907580099025
H         8.46390595856594    8.88223653415109   12.83694719211003
C         3.49102813943946    7.37684784722604    8.76655766245582
C         2.46046571353774    6.45624647644890    8.64439362502327
H         2.67922572296765    5.42969608265403    8.38791003429877
C         1.15408372661645    6.85689871042437    8.86210506955473
H         0.34964502925556    6.14186499305976    8.77439842444507
C         0.88194502490084    8.17059926824894    9.20682496532928
H        -0.13642215645902    8.47885199037430    9.39287421225329
C         1.90528548205110    9.09838145425495    9.31071990461807
H         1.66305953500925   10.11634417400406    9.57720316155289
C         3.21984233798096    8.71281282493672    9.08156409796947
C         4.82784661451581    9.99302505482918    7.23457588197515
H         4.83525608911573    8.94868011079742    6.87012529765291
C         6.14371148529205   10.63332629883879    6.79977889828308
H         6.21134706428687   11.67381015133936    7.10484898855334
H         6.23523536573095   10.58755795796491    5.71513239396779
H         6.99947088259230   10.10489675983698    7.22319237977223
C         3.62335921265920   10.70084204696268    6.62465327757313
H         2.68953402978235   10.24053030308990    6.94697802904115
H         3.67801319074175   10.63211816784016    5.53853498906210
H         3.60463027273708   11.75478154844563    6.89097824243796
C         4.10956365128570   11.38754349183946    9.75150478543743
H         3.12480094011109   11.51793378903780    9.28199095432007
C         4.96233065799181   12.60625890208300    9.41123821146784
H         5.99200104782782   12.47325069792569    9.73106914724667
H         4.55839533398821   13.47165446235817    9.93588961278396
H         4.94673857652874   12.82981932538032    8.34771205570882
C         3.94584851847806   11.27367026525377   11.26429529558772
H         3.36670399421919   10.39256763648879   11.53472573563239
H         3.43767871425439   12.15393852436817   11.65521936975278
H         4.92573580189212   11.21468479553274   11.73328401478371

