109
CSD_code = JECHII | q = 0 | S = 0 | Stoichiometry = C42H60O6Ru | MND = 6
Ru        1.92061612563056    2.20634752295731   10.94231263437356
O         1.37530468399482    1.16330895462205   12.59018780142319
O         0.04398828780546    2.08364405019721   10.60582250084141
O         1.57422251502850    3.87142881022339   11.98020006207797
O         3.76585145997047    2.72672592062468   11.42671640841081
O         2.74112557344480    0.70245335204391   10.03680845522561
O         2.34263117205981    3.10782609224537    9.21780475491970
C         0.12143554977217    1.34248215380966   12.78910561392548
C        -0.62946435761090    1.90970506531323   11.68768424169662
C        -2.02730790400119    2.14462023384076   11.82677839921765
C        -2.60989151106512    1.75281931908910   13.00560662157774
C        -1.90805820596741    1.13492536474130   14.06897959741424
C        -0.55468425364929    0.92757309809748   13.95240906940718
C        -2.77263505423113    2.83154812248484   10.69636274126105
C        -2.70277588647063    1.94392226417290    9.44580313429227
C        -4.24434172282523    3.08684124233208   11.03213256579594
C        -2.09535699851467    4.18121993503528   10.41732860620435
C        -2.69099999678488    0.74173229277805   15.31083232442232
C        -1.81228073189652    0.07516976971483   16.37227884083388
C        -3.31653520497368    2.00116262878348   15.92836598185387
C        -3.79460587776280   -0.24965048869048   14.91397124736479
C         2.64046811140824    4.52775223121934   12.30742386483135
C         3.88809528844322    3.86639714991774   12.02291499866935
C         5.10889098230113    4.47084284816567   12.41302806701347
C         5.03219881004174    5.71473616700616   12.99650496331119
C         3.82418552722070    6.39728713463216   13.24671075446397
C         2.63334744565408    5.79182738417199   12.91410693988742
C         6.41250684272336    3.72233738647342   12.18134000263182
C         6.60453898394006    3.49552694714679   10.67593970900688
C         7.62892429424823    4.48194969703318   12.71798491268831
C         6.33088970011675    2.36743383625721   12.89811174013944
C         3.89152895260941    7.77929184647455   13.87785911019235
C         2.50578849202728    8.39292738871269   14.09326277091122
C         4.58735717811302    7.68110898525550   15.24295640688288
C         4.68759115241639    8.71039840131025   12.95187474606416
C         3.59251714635017    1.15936599710834    9.17713778861715
C         3.36347496424252    2.50506866210242    8.70647031021802
C         4.19882686121172    3.04182942197395    7.69077372847320
C         5.22954091631762    2.24811809377847    7.24505458263829
C         5.47597339526877    0.93260339723798    7.69866905898316
C         4.64528692683469    0.39015236052696    8.64974034244593
C         3.93804428949140    4.45283915417341    7.18930745224125
C         2.54060732010202    4.48483959016106    6.55482818305594
C         3.98952940150774    5.42951243035317    8.37272364325200
C         4.96130626654438    4.90498240631794    6.14432198452406
C         6.66174531094908    0.17870971392960    7.11846253940002
C         6.78371455871614   -1.23935158791940    7.68164122681301
C         6.50139231339990    0.07529632609691    5.59498428792256
C         7.94971067916921    0.94200126032658    7.45945343776175
H        -3.66407800448883    1.92367979458015   13.13946647346613
H         0.03816026845652    0.48545255162001   14.73482447723003
H        -1.67070640051355    1.78340447977573    9.14810118821216
H        -3.23110993341831    2.41984447664864    8.62246984897306
H        -3.16326363787247    0.97747900929343    9.64204405726514
H        -4.34204906821546    3.71864603888059   11.91205650562446
H        -4.77749111532740    2.15351559817119   11.19868225927966
H        -4.71823107891822    3.59831906882469   10.19716626324559
H        -2.13436004473740    4.81173852784821   11.30357911061630
H        -2.60401624941915    4.69292059358611    9.60312854162745
H        -1.05349216005190    4.04224551055326   10.13996033283136
H        -1.35368980724903   -0.83104337659710   15.98509370297506
H        -2.42373895952005   -0.19637888397812   17.23030885229655
H        -1.03316924768866    0.75103688385334   16.71515796683636
H        -4.02131745738009    2.47247577015392   15.24953131030146
H        -2.54051393727366    2.72348188546652   16.17105447159726
H        -3.84642358817051    1.74245689658409   16.84239641467949
H        -4.49316958454306    0.18852511910112   14.20721053614131
H        -4.35187712914031   -0.55642147862619   15.79631087748962
H        -3.35628871949856   -1.13393801503372   14.45718409157869
H         5.94787339457997    6.20184651935851   13.28366173873249
H         1.67466331071832    6.24847207504603   13.09104481141518
H         5.76949941516512    2.93953458455197   10.25921341576163
H         7.51685578312561    2.93038673374242   10.49672681356716
H         6.68347358994937    4.44895387343575   10.15718973889672
H         7.54164686066513    4.65417066179369   13.78819901100376
H         7.75353108571578    5.43547198827768   12.20970209212175
H         8.52535495112278    3.89039507456728   12.54425261778035
H         6.18131413563387    2.51382650902887   13.96607520117855
H         7.25271720117725    1.80889363138879   12.74919607246234
H         5.50450148237546    1.77835147988051   12.50980924013404
H         1.97965926502864    8.50763018781441   13.14903525800718
H         2.61121319028523    9.37838186550965   14.54250970636685
H         1.90784645905017    7.77988779104467   14.76283409047072
H         4.04308321618764    6.99873682185104   15.89186224435250
H         4.61711020023708    8.65981133965840   15.71708837775739
H         5.60710867641388    7.31981951996847   15.14712808974677
H         4.21356519860609    8.75901171308890   11.97417002469267
H         5.70811051511930    8.36324689005847   12.81858586633291
H         4.72128822469173    9.71376075006588   13.37093630176653
H         5.89959355792910    2.65050911654141    6.50483151814700
H         4.77135388612422   -0.60479399734503    9.04106277487750
H         1.78741683986720    4.21018358973164    7.28724750106876
H         2.48792753567585    3.78707646723602    5.72131239144437
H         2.31944576721050    5.48442533818791    6.18681088264210
H         4.97557097280039    5.41917328171574    8.83202593919876
H         3.25506545593653    5.16071865738531    9.12747987468253
H         3.77618114550315    6.44014212907304    8.03102363170638
H         5.96784503594221    4.90996257774572    6.55668915716270
H         4.72388549100898    5.91792128591070    5.82635117062884
H         4.93546649493839    4.26365860320915    5.26630594011538
H         6.93361642100185   -1.22030714207347    8.75796537343435
H         7.64050238808744   -1.73619321575552    7.23109358782745
H         5.89670489563805   -1.82548771157376    7.45536692370499
H         5.57047975843766   -0.43127446411774    5.35060487938638
H         7.32603812207634   -0.49441885185623    5.17219725063011
H         6.49065671279028    1.05434876916518    5.12489122660538
H         8.05687588477389    1.02751848818652    8.53828036682105
H         7.94480823917576    1.94286094138751    7.03745972830638
H         8.81335532091075    0.40995534210528    7.06647273124965

