38
CSD_code = JECMUA | q = 0 | S = 0 | Stoichiometry = C10H21Cl4NOW | MND = 6
W         1.46599699882063    2.05077927280508   14.98254252369232
Cl        1.00479876013201    0.32676060474747   16.49731314710528
Cl        3.68356771300317    2.03258517758562   15.72354192100009
Cl       -0.41805920603779    1.45682732127437   13.74609693973823
Cl        2.13837361534530    3.42573505019189   13.20254041006147
O         2.35776293440754    0.37997074282838   13.66904140324361
N         0.83416617038973    3.35575985579987   15.97351932796185
C         0.62615923357071    4.52305952030249   16.69796213616748
C         1.81092870269929    4.71129167879100   17.66755624074350
C         1.69908961881949    6.03533697003984   18.41289832958018
C         1.62852655605399    7.20086625686652   17.43074130680266
C         0.44215288270258    7.03038689169477   16.48647461711380
C         0.54788196944116    5.71584687735075   15.72341961127647
C         1.90393554157437   -0.98012827230531   13.74104931304716
C         2.80014992325238   -1.83100556744264   14.63392936244925
C         3.41127371572288    0.56982599613129   12.71122156731751
C         2.86765966688423    0.73717420416430   11.29684142945994
H        -0.31266704599314    4.45851040141326   17.27254996405095
H         1.83121045750116    3.87044924380442   18.36449993820181
H         2.72987424300457    4.68147976709974   17.07354724495053
H         0.80038213046866    6.02771759291134   19.03377217002017
H         2.56129275173026    6.15313342008069   19.07151307201980
H         1.53480329126418    8.14076327020537   17.97746259998530
H         2.55115701246431    7.23974575399979   16.84867525291898
H        -0.48600574868947    7.04248541629989   17.06238079536118
H         0.40787879333869    7.85838558159389   15.77640577196084
H        -0.31100216652248    5.57675421764208   15.06353303844845
H         1.45300521160046    5.70330007664235   15.10941496685988
H         1.85178725768736   -1.39744443189762   12.73014439433137
H         0.88960253659570   -0.94610323651021   14.15374164710315
H         3.79393326929303   -1.94843878306369   14.20874633974353
H         2.88944628857995   -1.36743670091526   15.61458812408948
H         2.35690406679043   -2.81448816146445   14.75409581182197
H         4.10494790249474   -0.27554610235493   12.76494811471649
H         3.94662045362614    1.47648341706578   13.01583284216356
H         2.14032917168339    1.54685764278472   11.27565009803342
H         3.68428789993144    0.98547234084297   10.62548269647297
H         2.39054742636282   -0.17335330701538   10.94132552999318

