59
CSD_code = JECPUD | q = 0 | S = 0 | Stoichiometry = C22H28Cl2N4O2Pd | MND = 4
Pd       10.74790740889672    5.95976647019910    4.38115596878481
Cl       11.06653347451606    6.83061048729595    2.29236709278091
Cl       10.43341001925623    5.07765014806949    6.46679362592202
N        12.37431281540580    6.80132281340355    4.98427455270637
C        13.48779556800041    6.08386169295126    5.13693375976388
H        13.41376877283269    5.02188330892634    4.90362972591160
C        14.67222075365938    6.64402148470164    5.57336715656139
H        15.56033405581573    6.04398492750418    5.68898860603159
C        14.70354153906535    8.00698867469021    5.86716518484418
C        13.53246623138553    8.74873953530315    5.70378581985588
H        13.53866400618399    9.80337536109930    5.92358398976336
C        12.39453143277786    8.10743957162811    5.26014247779626
H        11.45913321540154    8.64604040647139    5.10966488851057
N        16.01390040399029    9.88129872425842    6.62771863358271
C        15.92279360452962    8.65131189214279    6.33458844251786
O        17.03946019401848    7.89332002777304    6.46072510984160
C        18.05895461534779    8.76144268213581    6.94378075826607
H        18.89116710022578    8.75258053115476    6.23652943034730
H        18.39933447171405    8.38495442673291    7.91255766922704
C        17.36635440481250   10.14919122423397    7.05681575339734
H        17.80269409465544   10.87847198674526    6.36441516833404
C        17.39290596795674   10.74739650977095    8.47234085543092
H        16.99980185950252    9.99373090390450    9.16444270423887
C        16.49624023616046   11.98077968408623    8.53065309801577
H        16.46279002230623   12.37415063632194    9.54359082196133
H        15.48921961746057   11.72472366520471    8.21549358192043
H        16.87761638338283   12.75534726667460    7.86950976283883
C        18.82095126256766   11.10599791161604    8.87336702141079
H        19.47424953755994   10.23707145335792    8.84682416526028
H        18.83178672307699   11.51085312510708    9.88232307404439
H        19.22371894908007   11.85816602213049    8.19836113145868
N         9.12064424094812    5.11969785744204    3.77950234635971
C         7.99765987777388    5.83190063151923    3.66184962489416
H         8.06835991036521    6.88856045891534    3.91935681245870
C         6.81206471202862    5.27175024526196    3.23334114756226
H         5.91056832580869    5.85470518416624    3.14333155174319
C         6.78679178464484    3.91434071102297    2.90915441919283
C         7.96567162103764    3.17984203226639    3.03492301489994
H         7.97815300958555    2.12935774593525    2.79303970586511
C         9.10662886128835    3.82187892845176    3.47424110502719
H        10.04875086033205    3.28721791291711    3.59499614215611
N         4.44971588291432    3.89929030468691    2.31954847592698
C         5.55363234605555    3.29008139189111    2.45108284023158
O         5.57908472839587    1.96860911530526    2.15015106473628
C         4.26469018217254    1.63153515256146    1.72006650957534
H         3.87842197934104    0.83723123154317    2.36249137704112
H         4.32321895722914    1.27106319725286    0.68916450856301
C         3.46411983114496    2.95930736077437    1.83976133403228
H         2.66979024329088    2.88829530329868    2.59185310507728
C         2.84039290040036    3.43461831039716    0.51784280575201
H         3.63293716281139    3.46019968727100   -0.23898334969657
C         2.27940126408961    4.84357501849714    0.68709587385368
H         1.47238060884742    4.84258065611941    1.41601400430168
H         1.89177385535648    5.21060108960350   -0.25997681940616
H         3.05788106407687    5.51507210697308    1.03651907878429
C         1.74341959901629    2.47358825027036    0.06869610195914
H         2.12594904395949    1.46476327859824   -0.06729708314085
H         1.32114482319919    2.80885208279855   -0.87540092081723
H         0.94589358233862    2.44071119866093    0.80794519173193

