59
CSD_code = JECQAK | q = 0 | S = 0 | Stoichiometry = C22H28Cl2N4O2Pd | MND = 4
Pd        4.30558317416302    3.81935439180398    5.06419648754423
Cl        5.03194089087020    5.84632453887234    4.29504192269005
Cl        3.57944587433933    1.79321968033229    5.83102517283499
N         5.23689536502386    2.93640782625444    3.62442916663550
O         5.16383736876574    1.07013495072262   -0.78638580760172
O         3.27873855512893    6.18724352878717   11.05633905395790
C         4.60972967493053    2.65781350155913    2.48850952168217
H         3.56360082221702    2.94804778043911    2.39814541115327
C         5.24759938064749    2.01041903452631    1.43282175200972
C         6.58530450345915    1.64697543242817    1.57933570689778
H         7.09678595649095    1.14381150668951    0.77376817031880
C         7.22471231222287    1.94649195846364    2.77106881176522
H         8.25905376918096    1.68279236927780    2.92474467595013
C         6.51799458890169    2.59161381933732    3.77077310730691
H         6.98019865315964    2.84741583686632    4.72425149736479
C         4.51235451387333    1.72428389068513    0.20704421793385
C         2.92871596184934    1.59516800214466   -1.31661064869591
H         2.11688818575459    0.86615192107462   -1.21266958683119
C         4.23056910004179    0.93502720289738   -1.85314523736827
H         4.11138856034322   -0.12620911522145   -2.08212035822546
H         4.63218073651568    1.45445747128711   -2.72776539443201
C         2.42315191597488    2.76723319269790   -2.17242643869894
H         3.25407808625153    3.46913031751791   -2.30795517467937
C         1.28897762462852    3.48564452314079   -1.44726491070299
H         1.62218039736736    3.81334692642891   -0.46725096865981
H         0.44156905727929    2.81660241594571   -1.31742382334002
H         0.96454046641818    4.35070042015555   -2.02031245392187
C         1.95442620352933    2.26920255894577   -3.53672104559155
H         1.12586659589446    1.57397535450657   -3.41929571236941
H         2.75268886146208    1.76266166454248   -4.07420630655088
H         1.61478776290475    3.10738780717945   -4.14015857647896
C         3.93412469254324    4.82664808128971    7.69872879481352
H         4.93257739486281    4.41456902522634    7.83928791358060
C         3.28495040853823    5.45811310991928    8.75727717931631
C         2.00534824777499    5.97029778725860    8.54942419510425
H         1.48578717642108    6.46264802683609    9.35649824967172
C         1.43233869037444    5.82823039287119    7.29629746238133
H         0.44410350570790    6.20962759470444    7.09398770725976
C         2.14550702780312    5.18743253310418    6.29849074345690
H         1.73551723236751    5.05533918969782    5.29712492783783
C         3.94644600872707    5.56746072533708   10.05165371946425
C         5.41367729556046    5.41342723065574   11.68562713116678
H         5.55392118942119    4.46302342320179   12.21339124041050
C         4.14785891947016    6.16689508850094   12.18398643717551
H         3.64151067259903    5.65884162269248   13.00752422478467
H         4.36297159962484    7.20053135355478   12.46953431164516
C         6.71244069819050    6.22718820939231   11.79673593380523
H         6.55093576725629    7.19033770871577   11.29906083851779
C         7.84438294647359    5.49183878164494   11.08510309405877
H         8.04094057219599    4.54042234897026   11.57375868800925
H         8.75308447379650    6.08827061655346   11.10696022900513
H         7.57109934066439    5.29825679716440   10.05231213231214
C         7.06926672697007    6.46815458546876   13.26083701842609
H         7.98049038466659    7.05745845491117   13.32753604227597
H         7.23653888444710    5.52052002568735   13.76840798686956
H         6.27864355025365    7.00148478820135   13.78345070677758
N         3.30208686806907    2.03766262872663    0.00655542811699
N         3.37108037203039    4.69991674351253    6.50367867042438
N         5.10098443372024    5.11507241571245   10.30748676129241

