105
CSD_code = JECQEO | q = 0 | S = 0 | Stoichiometry = C48H48Cl2N2O2P2Pd | MND = 4
C        13.03955422483241   11.73186657863780   15.31487408433527
C        14.00134568131255   10.72914158194737   15.41893854477331
H        14.03056351770485    9.94771753886578   14.66949404320188
C        14.91305817452160   10.74604806378438   16.45230156352600
H        15.66562508361746    9.97772301243804   16.53929617572741
C        14.87038946746384   11.77113272309489   17.39685611092217
C        13.91416239335571   12.77923038877175   17.28677294033917
H        13.90661411050910   13.56528495339019   18.02539034188888
C        13.00541311534437   12.76315700321911   16.24785505149012
H        12.26728521895668   13.54857318932272   16.15811387060529
C        15.81762995064335   11.79883385011120   18.50198641043166
C        16.89209182933786   12.35074508156667   20.34288755601129
H        17.60311636642857   13.18423355892902   20.37648003518478
C        17.54307495643727   11.08628345936230   19.71633310033639
H        18.57249187248318   11.26200873602328   19.39106601547268
H        17.52182434679356   10.22129910204645   20.38440588219726
C        16.33311179241066   12.13841892901283   21.76290469100423
H        17.14566105295046   11.72714301050907   22.37402513402325
C        15.16008292393982   11.16106405416217   21.76285821758660
H        14.33928574235290   11.57164525831025   21.17911243050045
H        14.81555172895775   10.99163483582944   22.78031729352045
H        15.44014531219879   10.20127886830874   21.33395619571122
C        15.89898399418837   13.48130750345948   22.34369705607310
H        16.74643989551792   14.15815148348831   22.42488566897051
H        15.46867340838125   13.34599146767808   23.33316943637122
H        15.15555950111987   13.93420776582885   21.69350972883004
C        11.02219481484485   10.06797544826531   14.32489579087521
C        10.93099975823340    9.09364873382005   13.33511858432849
H        11.34610433788855    9.29697453283611   12.34387784459866
C        10.30796160517932    7.88895130793543   13.60716459338791
H        10.23045865297334    7.13399589589451   12.83870923571788
C         9.78347299226670    7.65234223854184   14.86746539494988
H         9.29191067570774    6.71424464080005   15.07939383442732
C         9.89695965746772    8.61089680101511   15.86275828839008
H         9.50003613436327    8.41537064612423   16.84832535211131
C        10.52297383650639    9.81524221223622   15.59926366935808
H        10.63861467203957   10.55575936812333   16.37951645586505
C        10.77919993657500   13.02216548641665   14.12262744754063
C         9.55498562746767   13.01775334087580   14.77374200797541
H         9.18415551402809   12.11136991879938   15.22965575026641
C         8.79966530854313   14.17863188264927   14.80955436815871
H         7.84219827452764   14.17798342510716   15.30980399167337
C         9.25964337757976   15.33327491577662   14.19981578761400
H         8.66129533529433   16.23197983625003   14.22818379950017
C        10.47858802673532   15.33631619325645   13.53715507720600
H        10.82693700894152   16.23489348108375   13.04907427483919
C        11.23403329012608   14.18173659059508   13.49294276603408
H        12.19211724022603   14.15363907803812   12.96360467625506
N        15.84054969815805   12.68300944635439   19.41131310654623
O        16.74576216773911   10.80771990934391   18.57476481534316
P        11.89198325363282   11.60585629192020   13.91273473784188
Pd       12.56493350571783   11.62719120390545   11.76808296658608
Cl       14.79025160908634   11.71905823364122   12.31958382416698
C        12.09411711568301   11.72956556082416    8.21982047983032
C        11.13143124605098   10.72766363899728    8.11613180706416
H        11.10076449083277    9.94713196521005    8.86643661314051
C        10.22013553678556   10.74474994592786    7.08240901245261
H         9.46649376964464    9.97743829326867    6.99590247724251
C        10.26403054703825   11.76918678621881    6.13722365412551
C        11.22211062980780   12.77566689662123    6.24605093467592
H        11.23147046537927   13.56062800393651    5.50629915212004
C        12.13049479462204   12.75937447390095    7.28526989952846
H        12.87014786378555   13.54346120887360    7.37402512379063
C         9.31539040471983   11.79824792620554    5.03336428218291
C         8.23839673344259   12.35224837674236    3.19457928944571
H         7.52817096983178   13.18653217711036    3.16369737983560
C         7.58749901927707   11.08776498569983    3.82117288506757
H         6.55807794388844   11.26308364817982    4.14657080825514
H         7.60889123841512   10.22292874433591    3.15287328517902
C         8.79403524489494   12.14104674376031    1.77314711832862
H         7.97970073939999   11.73183284454159    1.16300563616997
C         9.96569843784914   11.16207135354021    1.76972662305929
H        10.78838335279911   11.57120104934496    2.35183423127561
H        10.30759197139843   10.99280105153718    0.75136835299604
H         9.68540426152973   10.20239300063297    2.19871410813391
C         9.22912743103580   13.48412995584319    1.19355116626754
H         8.38281049335025   14.16281862517183    1.11600895200693
H         9.65640353000344   13.34975972276588    0.20264862033955
H         9.97525084355860   13.93434336248148    1.84251864507553
C        14.11034405272855   10.06713929152246    9.21456393591022
C        14.19807232596264    9.09287809603038   10.20473405335914
H        13.77981973627783    9.29644086798207   11.19467602033658
C        14.82164340302856    7.88799428099104    9.93476894043924
H        14.89636606501491    7.13298805061738   10.70346157902742
C        15.35020720275821    7.65122875351267    8.67619056481109
H        15.84235552348427    6.71305343833628    8.46596116898375
C        15.24012222606652    8.60969672364875    7.68043208614054
H        15.64025447145239    8.41400878187571    6.69618959700217
C        14.61344800439268    9.81416879637092    7.94178816839868
H        14.50024061185598   10.55460730746248    7.16109919425029
C        14.35154100108947   13.02208169197050    9.41501311068882
C        15.57747553857383   13.01814061842338    8.76716895979568
H        15.95018405518195   12.11171657651484    8.31288149106339
C        16.33197461292072   14.17959850595206    8.73251480303288
H        17.29078552288680   14.17934363045820    8.23485003476429
C        15.86947311481497   15.33431981942009    9.34018990981277
H        16.46726404577957   16.23342404472994    9.31289979153046
C        14.64879374095408   15.33687503377533    9.99965515218771
H        14.29842767365549   16.23554256454501   10.48612943687915
C        13.89412706225082   14.18175701038917   10.04265724693274
H        12.93466357023483   14.15327740818466   10.56946635652372
N         9.29241485733972   12.68245993142071    4.12408133436946
O         8.38518931065733   10.80895170639319    4.96241335709513
P        13.23944116556760   11.60509251453906    9.62391071369343
Cl       10.33982005644674   11.71794115543380   11.21623643475848

