61
CSD_code = JEDCUR | q = 0 | S = 0 | Stoichiometry = C22H22CdN8O6S2 | MND = 8
C        18.16425170227753    3.96649636881313    0.64017730139467
H        17.38175775759051    3.76640761788232   -0.09811889283032
H        17.71762163795742    4.56388283965257    1.44179585596822
C        19.32539507282183    4.73010987949965    0.00697187940807
H        18.98538686428096    5.72852750158123   -0.27144214055185
H        19.67335553378609    4.22051080266978   -0.89517266962266
C        20.46587560434166    4.83602515055903    1.00089925584831
H        20.12296471241575    5.20938917865673    1.96609730005113
H        21.28395964973105    5.45410990418497    0.63446011054161
N        18.50283952504510    2.69822900642201    1.21779021574334
C        19.67158301588361    2.29516628813663    1.47740201101978
C        18.99329539669396   -0.70869922920259    3.02222479771661
H        18.24277096892940   -1.32749051681811    3.47689479023839
C        20.38910513123358   -0.93634994038766    2.90232713850359
C        21.24552636292427   -1.97351849505316    3.27293683355638
H        20.85913196226187   -2.84364165658544    3.77960490866226
C        22.58061077871810   -1.84502642025881    2.97241303795546
H        23.27290645964779   -2.62614417384253    3.24676601734599
C        23.06311574104327   -0.71340693272448    2.30664260628355
H        24.11616801916591   -0.65141867047062    2.07826291132666
C        22.23840668256142    0.32566823634392    1.93203622854999
H        22.63835692940160    1.18122292973214    1.41511118726489
C        20.88740132192853    0.21704083396829    2.24836547561033
Cd       17.07207337837006    1.94153594524000    3.14659956784657
N        19.79752218062816    1.02707197068225    2.02724954218592
N        18.67344320736942    0.43796060302438    2.49463471769700
N        15.43169310671789    0.75522899395131    4.72052792888645
O        15.65330010136718    1.97054373469757    4.81512817442400
O        15.99538320628053    0.12616289412221    3.80452419755914
O        14.66318489710757    0.19888920298815    5.45926573484900
S        21.18812006939311    3.18473894964994    1.27416785603872
C        15.97425777972562   -0.08592945978944    0.62699956379542
H        16.75131236058216    0.11615133152231   -0.11644134571066
H        16.42815697439374   -0.68042514361416    1.42660080288754
C        14.81200369654163   -0.85476873717623    0.00215374590837
H        15.15430378221250   -1.85177091231633   -0.27851381009749
H        14.45563160570207   -0.34679592229583   -0.89760667565829
C        13.67886633618096   -0.96539522775272    1.00393028922011
H        14.03017784297157   -1.33665477132826    1.96687352449854
H        12.86113580788407   -1.58731968995042    0.64330704097985
N        15.63442580872778    1.18136749387157    1.20553654710395
C        14.46599468139362    1.57814478520463    1.47456785428347
C        15.13802295969675    4.57611891748405    3.03466408553422
H        15.88657314166594    5.19217632577887    3.49620974492386
C        13.74315870454160    4.80511600737341    2.90724082983768
C        12.88486814675355    5.84145389247652    3.27609243203518
H        13.26854542787847    6.70967652123175    3.78805289942809
C        11.55160928538111    5.71446221766241    2.96710591173515
H        10.85798881671450    6.49493123456213    3.23998865030819
C        11.07246681499973    4.58532635430572    2.29454143646763
H        10.02080586287220    4.52487541798528    2.05941403844694
C        11.89886915725881    3.54711501336431    1.92150367353329
H        11.50222730836844    2.69333359021204    1.39903861430580
C        13.24793088230800    3.65414971296669    2.24667230198666
N        14.33828410691842    2.84418495091070    2.02919645800766
N        15.45999527558252    3.43090742906225    2.50488706763029
N        18.72583371151103    3.13177208886982    4.70573728513264
O        18.51933802298162    1.91266812930093    4.78958774372884
O        18.13819639103172    3.76546674535615    3.80869502467541
O        19.50291359440140    3.68692835463933    5.43640827122699
S        12.95129873494677    0.68271055296793    1.28201211435682

