55
CSD_code = JEDDUS | q = 0 | S = 0 | Stoichiometry = C20H18CdN8O6S2 | MND = 8
O        -0.49797177828257    1.40403881140728    4.06491311022824
O        -1.19247616823591    1.56664076919406    2.05565171188451
N        -0.31516110656577    1.79149514989507    2.90381205231234
N        -1.83095289942037   -1.12515087147383    5.14182960104998
C        -8.47376964603394   -0.43118749496199    5.13726754480328
H        -9.52772933995973   -0.30955546951763    5.33693430361585
C        -7.62878811633940   -0.80056299232824    6.14012131895113
H        -7.97615465524779   -0.97751750247943    7.14612276393419
C        -0.51045047669430   -1.26268194563776    5.68395087165172
H        -0.07787923510851   -0.25767697206655    5.71180844982968
H         0.08262943472967   -1.87229570419248    4.99876144648430
C        -0.56468852771597   -1.88814144111614    7.09271184376132
H         0.01228958456421   -1.32419213338091    7.82201168304524
H        -0.23731707370111   -2.92784031646079    7.10165002781696
O         0.69756167389272    2.36217560239887    2.59882583723619
Cd       -2.24642627237706    0.35653113019407    3.43032842906663
S        -2.31391811081387   -1.85578814650030    7.59483096622814
N        -4.46476821730191   -0.87155281657337    4.43110808547550
N        -4.08889613111316   -1.19156455638987    5.67523674335860
C        -5.78509298536760   -0.69433625076785    4.49613520572667
C        -2.76062759047932   -1.33952751146317    5.97500188169690
C        -6.25973351558235   -0.93383798393170    5.83315972624791
C        -5.12200537621407   -1.25005818761566    6.55074122460396
H        -4.97150243613425   -1.48762936561445    7.58448992204604
C        -6.68853944162729   -0.30952674457956    3.48675823086023
H        -6.33208340490672   -0.08665891566051    2.49549164278919
C        -8.00345328941794   -0.18125003023188    3.82573522740019
H        -8.71737905678748    0.13098599900775    3.07852947196981
O        -3.99484153210653    1.40398006540212    2.79558826644979
O        -3.30032098673253    1.56678915005134    4.80482414518057
N        -4.17747433233505    1.79192221640443    3.95655795779808
N        -2.66213943424186   -1.12535873845257    1.71902425138675
C         3.98061815923158   -0.43096723970651    1.72316284438610
H         5.03453319633734   -0.30910991961419    1.52340054446234
C         3.13556162204775   -0.80013512494111    0.72029630162193
H         3.48282103175095   -0.97670158857680   -0.28580981838426
C        -3.98267159045927   -1.26293975685353    1.17698019436209
H        -4.41527166503753   -0.25794742307904    1.14914580422285
H        -4.57570412837653   -1.87257262532246    1.86219354295853
C        -3.92849548064034   -1.88839562257605   -0.23178534920929
H        -4.50555999834818   -1.32447904933362   -0.96104292514188
H        -4.25580505582997   -2.92811476392753   -0.24070131707552
O        -5.19041163880074    2.36218739839293    4.26159698327206
S        -2.17930259958992   -1.85592915012780   -0.73402659923581
N        -0.02827455378887   -0.87190025962677    2.42962639741889
N        -0.40423393744118   -1.19165552394778    1.18545704221936
C         1.29202781558221   -0.69454006817779    2.36451095558366
C        -1.73251270235413   -1.33967373513727    0.88577796482629
C         1.76655704474609   -0.93364741301510    1.02737608101622
C         0.62879058573207   -1.24980282629277    0.30982951886368
H         0.47821158653242   -1.48713728828377   -0.72396291287776
C         2.19555552238510   -0.30996529879858    3.37390406051129
H         1.83920439192345   -0.08745916317657    4.36528863346203
C         3.51042055351080   -0.18146823052827    3.03482008428506
H         4.22440228453063    0.13058787009526    3.78204802356229

