81
CSD_code = JEDJAG | q = 0 | S = 0 | Stoichiometry = C44H32CuIOP2 | MND = 3
Cu        1.88106568717217    0.68089615831584    7.17902647810473
I         1.11584127063171   -0.50981749955696    9.22998795326427
O         0.64538583609152    1.91060393421963    6.07580511767737
P         3.38275565687438    1.06303430424267    5.48150432872454
P         0.78040023588234    3.00487421601464    7.06817835676485
C         3.35273459012739    3.79616125677882    5.69444378150411
C         3.23257153554602    2.75082239461274    4.79526418965341
C         3.01725490811489    3.01710798814576    3.42997434924340
H         2.90037179999208    2.19203000357279    2.74162013581770
C         2.95632600645441    4.30423189694773    2.97987626049933
H         2.78162972327127    4.50704274598937    1.93262900888172
C         3.14734235431970    5.39269314700831    3.85689559011215
C         3.36388098139675    5.13758105181535    5.23548920155398
C         3.58875133496674    6.22777794419130    6.10271120310739
H         3.76748993668309    6.03443035118099    7.15058007327566
C         3.59915706387940    7.50775312946546    5.62492039791232
H         3.78439228712010    8.33446901817666    6.29475299873040
C         3.36573863917991    7.76143810412550    4.26528029582930
H         3.36765072768174    8.78047272259638    3.90766644150684
C         3.14298147396125    6.72651442847830    3.40141201276314
H         2.96749197052573    6.91263093703185    2.35145799521895
C         3.51712189010491    3.48555587218434    7.12993554647642
C         2.41205262745353    3.11942738148509    7.87889631986086
C         2.55392971840672    2.80692826069361    9.24540328223303
H         1.68181892880886    2.53217075933276    9.82049039099172
C         3.78384364504684    2.82392053485656    9.83572206693086
H         3.88796554145889    2.55840193728338   10.87712191085150
C         4.93526074313757    3.17791999823096    9.10054200670839
C         4.80050705773043    3.53519789264840    7.73323314924910
C         5.95232261945686    3.91587731698598    7.01167514922832
H         5.85074659142603    4.20212644781933    5.97509336748614
C         7.17926524310263    3.92137851739354    7.61223495853075
H         8.05437760415392    4.21235761572257    7.05037126434286
C         7.31557051603164    3.54869210225418    8.95768389805609
H         8.29508413457397    3.55229139126546    9.41226930504461
C         6.21679393536959    3.18956491046199    9.68669877138249
H         6.31025744199497    2.90642488060203   10.72498878756163
C         5.18001268602550    0.99286460022089    5.77651102297990
C         6.10601082735755    1.48125672440664    4.86042987472247
H         5.76496280502409    1.91264187444445    3.92843720231688
C         7.45595463421960    1.40953756134630    5.14714730378194
H         8.17702290925345    1.78347305120160    4.43458390452262
C         7.88543775215105    0.86301708972040    6.34664772649080
H         8.94157383686203    0.81363279049467    6.56666157249937
C         6.96547450329013    0.38169141131734    7.26285527377492
H         7.29984947829264   -0.04114768115806    8.19819862538739
C         5.61368606872674    0.44487433337442    6.97810031686019
H         4.88104632098670    0.07298018888461    7.68389489436974
C         3.14390918315845    0.00745948575219    4.02159425130732
C         4.13127285748519   -0.80424705563149    3.47519492783008
H         5.13271950289993   -0.79026285081804    3.88135115367887
C         3.82571118112248   -1.63218149604024    2.40885389605134
H         4.59559812297771   -2.25855198066646    1.98220175597107
C         2.54137515100921   -1.66503115414189    1.89194406820082
H         2.31092411896026   -2.31409533792718    1.06018743646689
C         1.54747336974099   -0.87571757382283    2.45067265972528
H         0.54160553022827   -0.91285188047150    2.05846243442194
C         1.84350475048994   -0.05076119584575    3.51758660610755
H         1.07282412935354    0.55600291314411    3.97589764261282
C        -0.47699375332076    2.88255903688584    8.36227966526039
C        -0.55098966442726    3.75725239408443    9.44097210123021
H         0.17777023233130    4.54732470944541    9.55392157395358
C        -1.55084614108501    3.59768897817741   10.38121431320064
H        -1.60355016857357    4.26933781513593   11.22556292249158
C        -2.47545872544519    2.57290332555584   10.24978671542180
H        -3.24535899780409    2.44637153336347   10.99591945926193
C        -2.40997758692263    1.70886728703052    9.17031999484113
H        -3.12284773103462    0.90474032422461    9.07229433756856
C        -1.41474195670519    1.86704611206333    8.22382084638663
H        -1.34286746621932    1.19325549987534    7.38123030413285
C         0.48602557520639    4.59668433525783    6.25023599368206
C         0.02828789878908    4.56083959562714    4.94048847650479
H        -0.10072283622128    3.60257301128464    4.45724343007775
C        -0.24323130724338    5.73803383057602    4.26946116628096
H        -0.58963283233834    5.70971120192787    3.24683426408419
C        -0.07177452075301    6.95215168938807    4.91293914016905
H        -0.28449632474347    7.87379174330581    4.39194796728742
C         0.37264598716926    6.98883812777557    6.22488108231491
H         0.50474120344627    7.93762262722581    6.72374753616313
C         0.65577922528245    5.81422991664076    6.89515982214112
H         1.02335791287239    5.84240903479117    7.91088799238004

