35
CSD_code = JEDLOT | q = 0 | S = 0 | Stoichiometry = C17H14FeO3 | MND = 7
Fe        3.89698576298312   -0.44097949881639   15.86189964787070
O         3.30445208985389    2.28670181500294   16.76603105013270
O         5.30860839537671   -1.50316748805344   18.17347485186679
O         1.56551912567698   -1.82525842145468   16.91671078218952
C         4.53767250625703    1.96268447329537   13.37516897761105
C         5.57318558563011    1.51460329321528   14.07827427756449
C         5.71486686461452    0.22443476432401   14.75354261498206
C         5.23932014801088   -1.02473826212179   14.24330284919538
C         3.91467638490613   -1.15490211609944   13.80719110387183
C         3.02128362687163   -0.03704502672909   13.90988798910048
C         3.21803178136070    1.28461356224721   13.18729407645772
C         2.95682852670147    1.14676436613508   11.66533751997803
C         3.85299561874628    0.16517374921298   10.97750967975013
C         3.98931249825508    0.15947179136502    9.64677277724117
C         3.19780389044334    0.93991535606628    8.73753259545116
C         1.89522471839759    1.24546016081152    8.92176927248693
C         1.11083242584962    0.83345937348263   10.05191558063851
C         1.57551700664138    0.69489937158250   11.29899854626237
C         3.54858453876573    1.22661616867577   16.41589480965171
C         4.78233702610982   -1.10688536123804   17.23473128068361
C         2.48131296432215   -1.30632365826691   16.46150213979427
H         4.60033492515013    2.94278214655676   12.92071244657545
H         6.43267401654722    2.16484510901295   14.18786692447781
H         6.68061376466063    0.14361155771874   15.25089225548821
H         5.88733327982465   -1.89657687644952   14.26461790680977
H         3.54500063931657   -2.13161024896138   13.50457594087602
H         1.97825673005717   -0.34072266805220   13.80007747591273
H         2.44959282362400    1.97838440232673   13.56077135468312
H         3.11814671088977    2.13407932549937   11.20908686152121
H         4.40646576913351   -0.52981685848737   11.59189529149576
H         4.72849427397023   -0.48891851084230    9.19355397655334
H         3.65501708018752    1.17759733186276    7.78519969471657
H         1.35506198874755    1.71793117560084    8.11094127165760
H         0.07285135846351    0.60353731257834    9.84703706784392
H         0.94430515365394    0.27737838899879   12.06932910860759

