75
CSD_code = JEDMAH | q = 0 | S = 0 | Stoichiometry = C34H32N4O4Zn | MND = 4
C        -4.28665119109140   -0.72105839497207   13.81764411597755
H        -4.48585214349857   -0.32433148150839   12.83246281493457
C        -4.76208318098964   -1.97732483731884   14.21363075116392
H        -5.34402461617943   -2.57175948922467   13.52680852407549
C        -4.47246957617222   -2.43288860567276   15.47668962575466
H        -4.81934677900595   -3.39811061719151   15.81822928421849
C        -3.70577656644143   -1.62800591513422   16.33673029828897
C        -3.27623254816649   -0.37829089391436   15.83916530722680
C        -2.47856415528305    0.47572747008992   16.66984249038769
C        -2.13521501330299    0.05580909885867   17.97372130911635
C        -1.34087881537073    0.92563627148894   18.74029493047420
H        -1.05385243186644    0.64108596345480   19.74293761811940
C        -0.94062706556547    2.12221930658256   18.19705737433392
H        -0.32877914888291    2.81155690077951   18.75756297404798
C        -1.33502471144160    2.44296358390559   16.89217873050475
H        -1.03720872723564    3.36864033906069   16.42184620754838
C        -3.34581213845884   -2.01618596889592   17.65963802929790
H        -3.68632077738158   -2.97642335129050   18.01937414323253
C        -2.59282034735028   -1.20858277122498   18.44494866871706
H        -2.31885249399934   -1.50885080570304   19.44604627553093
C        -0.13663241000069    1.57276527254434   13.64020557305436
C         1.30958544543416    1.47523141798135   13.38360492280126
H         1.68834635862825    0.46932700733963   13.28771779435557
C         2.07581031228381    2.56903964021234   13.28035154912328
H         1.57468388553558    3.52341501912082   13.39115328140480
C         3.49753730032022    2.62779115487687   13.03547885517290
C         4.29887604805317    1.49555593947578   12.85958643093869
H         3.85230263492157    0.51447340196211   12.90938299199015
C         5.64944804260487    1.59784470117160   12.62241325357730
H         6.22026849249809    0.69129632111940   12.50210343960751
C         6.28624672284490    2.84771430078476   12.54768471293748
C         5.48360571128358    3.98538975116658   12.72380538904688
H         5.91311052679653    4.97213709318340   12.66197055757724
C         4.13331032414332    3.87093658831772   12.96101219430817
H         3.54420831635339    4.76866726673506   13.08578688483793
C         8.37854430643627    1.79324675878329   11.87333321796972
H         9.37150101439459    2.10374468611624   11.55670107179752
H         7.88443935025171    1.31456877967908   11.02234261208739
H         8.49196222833694    1.05293213092908   12.67180682650023
C         8.28514493128426    4.22920990885341   12.29567608780699
H         9.36423555186813    4.08872860569372   12.29629140047101
H         8.02398610359144    4.80882989728393   13.18296013868195
H         8.01128866036870    4.80853484136979   11.40503298322672
C        -4.15866905186852    2.91332398792965   12.97284122714982
C        -5.22911081787249    3.65847059270477   12.29202428453390
H        -5.74644601731353    4.37576215613273   12.91000744442040
C        -5.51729585745341    3.44968549102313   11.00055529776968
H        -4.92180936738457    2.70621980450163   10.48380029182915
C        -6.53420096030372    4.10329868389002   10.21067466066095
C        -7.38027074935244    5.09748383512896   10.71092592938408
H        -7.28365119340749    5.41093870524860   11.73885495306642
C        -8.33569480352688    5.69577731824022    9.92327927292323
H        -8.95690746297127    6.45833812745274   10.36399797264071
C        -8.50843226720076    5.33139339848115    8.57777045774095
C        -7.65570840531358    4.33763009974794    8.07241404240545
H        -7.73072605460655    4.02374531131409    7.04408056204138
C        -6.70282915063491    3.74629787481154    8.86943258502167
H        -6.06204068470723    2.98617446550569    8.44487503722377
C       -10.20699302624400    7.05502077113930    8.28808198490927
H       -10.89843547449271    7.39940179730852    7.52260311878707
H        -9.53510545944719    7.88293143757442    8.54169384460989
H       -10.79047251654447    6.79550858082584    9.17521331248147
C        -9.56422630770551    5.59613654122673    6.39567749301853
H       -10.42072832923335    6.10677425535769    5.96112565783232
H        -9.70578520524721    4.52296364172370    6.24954398838349
H        -8.66421806395829    5.90783109161814    5.85205672988561
N        -3.57636273845696    0.04496533322862   14.60743016270280
N        -2.07654595275804    1.64574892813947   16.16455204690408
N         7.63690596066642    2.94286372379935   12.33168706347038
N        -9.48430949337619    5.90518591529306    7.80176712270484
O        -0.68203094241134    2.70083998080319   13.76524635159928
O        -0.80947407846261    0.51931596779341   13.76009977413072
O        -3.92432886525548    3.14998467158317   14.18487193352759
O        -3.50126401637069    2.03435303078818   12.35585748064968
Zn       -2.44155007737219    1.77582819282045   14.05784627336511

