55
CSD_code = JEDMUA | q = 0 | S = 0 | Stoichiometry = C20H22N8NiO2S2 | MND = 6
Ni       -0.31353063033442    3.93541443648812    9.57296609415996
S         0.23435129795363    1.97935048422563   10.94868561403612
S        -2.03406750194850    4.92124008882074   11.01265187186091
O        -0.88423860353461    5.29074638042363    7.93494325525250
O         1.45808978256871    3.57375599295011    8.32295082876254
N        -1.25064138067311   -0.13588740891509   10.52400092023853
N        -1.68895593039544    1.59188267774961    9.10823694334515
N        -1.44835567656963    2.82398046927580    8.71454835200100
N        -2.47943392600750    5.21646567221081    6.29891074581355
N        -1.14658287965447    6.54012549428447   12.87036632791537
N         0.47319107327657    5.78793888758020   11.45803844709885
N         0.82378106988735    5.04634615687241   10.42922152948370
N         3.66487324160430    4.14523843308397    8.49600022653676
C        -0.99281012829802    1.12914272186654   10.13221671515086
C        -2.06737198365585    3.28383983701321    7.65437864513011
C        -3.03582732015866    2.44378577508026    6.87681299289994
C        -1.75546496034900    4.66889060776608    7.31438124098654
C        -2.41124984261879    6.50085166720104    5.75840526718002
C        -1.51612574733460    7.46846146561860    6.20604159310047
C        -1.50674470697354    8.71871953872452    5.61527405982504
C        -2.37746964399582    9.02289566944235    4.58266951859328
C        -3.26927116308098    8.06149185322371    4.13640914435958
C        -3.28792170496967    6.80925904154963    4.71809033408569
C        -0.79954820897671    5.77574769664464   11.81440598011868
C         2.06301336442949    5.09459982022263   10.00436795291379
C         3.08942208228956    5.97311761000319   10.65463926640948
C         2.35930516543674    4.21531149180325    8.87733118664897
C         4.24645525468292    3.40054425997424    7.46957223409864
C         3.51786911685186    2.56219910610667    6.63045474939353
C         4.16736029890211    1.85953029570435    5.63208118330043
C         5.53536351966772    1.97792501969632    5.45501221048260
C         6.26209049360483    2.81084511145737    6.28985640177002
C         5.62489371189293    3.51771562223419    7.29033691835895
H        -2.06276842212826   -0.60460021187606   10.16225341720688
H        -0.82263459822946   -0.46482160564881   11.37109706646710
H        -4.05451236731856    2.81699363316209    6.99110300619999
H        -2.99711980331878    1.42966442783851    7.26617886314062
H        -2.77607393766850    2.42578902166774    5.81850989909956
H        -3.18543064252909    4.62511216281423    5.88387447158593
H        -0.84017314340330    7.23433018898884    7.01064796686879
H        -0.80970746833200    9.46390874275337    5.96893633852747
H        -2.36328960432075   10.00188894180231    4.12798256979799
H        -3.95353077602622    8.28717345641460    3.33186654359875
H        -3.98578920568900    6.06080697038793    4.36731134962627
H        -0.42539264051422    6.93458376747951   13.44864315993260
H        -2.08021239109822    6.45308992946312   13.23054008373248
H         3.84086798770153    5.37595714405503   11.17299058830307
H         2.58726204248320    6.60129259652577   11.38584561466271
H         3.58086692591385    6.61056991400767    9.91988146887037
H         4.31831120142218    4.69307998650444    9.03751764589687
H         2.45422691124514    2.46752438563549    6.76805027116587
H         3.59478751319272    1.21093502682290    4.98568291406007
H         6.03393207613835    1.42531846127315    4.67308628038175
H         7.32988437994025    2.91066389832484    6.16185131785935
H         6.19534842901155    4.16696718522285    7.94099041170714

