55
CSD_code = JEDOOW | q = 1 | S = 0 | Stoichiometry = C21H31N2Ti(1+) | MND = 13
Ti        0.17999899821659    4.73469588022045    3.73218816612549
C         0.62756218112673    3.00647896362662    2.80369664995436
C         0.39263982589656    2.03234987053083    1.71146296052953
N         1.45362494811613    3.13003328031591    3.72869029388340
C         2.63351567546338    2.42232838468911    4.21844033658683
C         2.84950669463273    1.08829482918046    3.50056461528857
C         2.43374287395136    2.17837651254419    5.71818360067617
C         3.83371521320742    3.34758638362398    3.98505075183173
C         1.37709749355215    5.39090442330414    5.28211245559910
N         1.97359549544288    5.94380426272326    6.11049797289869
C         2.67649966385292    6.63390682054919    7.12213466439275
C         3.74771547117150    5.69216906732452    7.67819591477421
C         3.30992969009910    7.87352272404392    6.48511885634620
C         1.66939701832722    7.02411528627258    8.20717331785731
C        -1.00426729315679    3.37659533993817    5.33714023477910
C        -1.04276819524598    4.70230076122997    5.81678564074247
C        -1.72060571566722    5.49230893675834    4.86368479727611
C        -2.10043336686548    4.65670557517949    3.79581938327669
C        -1.65534689621942    3.34325303921687    4.08786230687667
C         1.35395285731340    5.35067836896985    1.73528811928491
C         1.81412197985063    6.20074001760586    2.75119621484964
C         0.71181910643560    6.97401752238467    3.20605962510113
C        -0.41359204446068    6.60592689304510    2.45202865245636
C        -0.03546576322748    5.57004351051076    1.57406830579994
H        -0.46145943739366    2.32334563428802    1.10034698518461
H         0.20244738472565    1.04141469240174    2.12659156220993
H         1.27189551390059    1.96514531046942    1.06870142500872
H         3.70466934193201    0.58294653371873    3.94159463185586
H         3.05554045079507    1.23714868306175    2.44443563266899
H         1.98310383169927    0.44179567059234    3.61294643749878
H         3.35801136045487    1.82022348886019    6.16316863293929
H         1.66286291587316    1.42776221910664    5.88008918318476
H         2.13574962608289    3.10133335845633    6.21456216909218
H         4.74122679860293    2.87733803604949    4.35381901226372
H         3.68745433837917    4.29167344301441    4.50751274969302
H         3.95695491612043    3.55023383327579    2.92228194417363
H         4.44808579670163    5.39985964639090    6.89892091961153
H         3.29476483777371    4.79618704275365    8.09693007794197
H         4.29937108732812    6.19868550177157    8.46462716201617
H         3.86829000006988    8.42208888252100    7.23796042628328
H         2.54555625906517    8.53048657210723    6.07624339591962
H         3.99248563253501    7.59153244173974    5.68630198709264
H         0.87999440227298    7.64831722834424    7.79371892296793
H         2.17717087691109    7.58230855081512    8.98825379391122
H         1.22051347097543    6.13903168018885    8.65290332169938
H        -0.64348563821749    2.51670131816859    5.88651945142342
H        -0.76484444608167    5.01772117834556    6.81351737634850
H        -2.01444368015263    6.52471402521948    5.00367679563195
H        -2.76136380301498    4.92274527444538    2.98127226737669
H        -1.93837511569277    2.44985772841304    3.54690278999985
H         1.97440525333163    4.72419962402442    1.10688095554721
H         2.84961108344188    6.35025714789193    3.02864856392056
H         0.76968101928462    7.81928888606190    3.87990058271592
H        -1.36918138632572    7.11177161983182    2.45855331514035
H        -0.64974860325235    5.15334809385078    0.78647369140765

