153
CSD_code = JEFDUU | q = 1 | S = 0 | Stoichiometry = C84H64CuN4(1+) | MND = 4
Cu       14.71608832808072    7.34824664515717    5.35847349298597
N        13.02100224834568    6.41698804146448    4.72878544921952
N        15.46031277903050    8.27953583860673    3.71017377555487
C        12.92214354110414    2.42803288168740    3.44892362021496
C        11.91045743860718    2.53291159687699    4.40293356346104
H        12.05628665371349    3.16759265557677    5.26471069486874
C        10.74955528245679    1.79293428864893    4.27744178500000
H         9.97983930881924    1.87742793412541    5.02975354004157
C        10.57688611403609    0.94407064049936    3.19706703473915
H         9.66949461632865    0.36792894168989    3.09999737585443
C        11.57696814527662    0.83068679868986    2.24388990217459
H        11.44723252271549    0.16927655965670    1.40074620999432
C        12.74387345951036    1.55886648562553    2.37131345888570
H        13.52103345857165    1.47395449397921    1.62573503353146
C        15.41947536491610    2.46813172784769    3.37829563617860
C        16.54984360714030    3.10388784229625    2.86202703542199
H        16.49064418158297    4.13923708128994    2.56334813526354
C        17.73192766778758    2.40825997735750    2.69511696037524
H        18.59339429760131    2.91244636641770    2.28317660614902
C        17.81290783702345    1.07189483880301    3.05242581393493
H        18.73746334480908    0.53020952417616    2.92339367331862
C        16.69828949579909    0.43049776418356    3.56838220965166
H        16.75612307164808   -0.61089504794171    3.84702284747860
C        15.50978604308319    1.11725200713346    3.72171848069738
H        14.64226739140889    0.61468183243015    4.12299194257813
C        14.16569261754894    3.19559731767543    3.57514500393654
C        14.17238305308466    4.51066868202865    3.91345948951502
H        15.11084043168589    5.01456729263368    4.10087518167723
C        13.00790242018848    5.31137318204737    4.07364883871311
H        12.07541656643060    4.95203545036719    3.63317782957908
C        11.86743864369159    7.20315340819791    4.78278385465382
C        11.25413335297926    7.61497338134979    3.60004352720281
H        11.69620764926864    7.32230743875476    2.65820187809338
C        10.11544946147928    8.39592413846894    3.62838382821830
H         9.65685300213073    8.71208126827076    2.70400781514464
C         9.56108658273044    8.76051460661921    4.84487161708981
H         8.66432470635498    9.35993448982041    4.87382206188136
C        10.15964212956261    8.34966018429236    6.02253365743112
H         9.72882824255615    8.62765559581110    6.97357623685103
C        11.31977975789138    7.58218496560556    6.01581235952228
C        12.81680662148203   12.22879503548588    4.47082783412725
C        11.65916360258268   11.59513175544675    4.92546965010780
H        11.48509811673636   10.55918961434355    4.67818287499816
C        10.71746197911809   12.29355375990365    5.65660316809022
H         9.82188532226550   11.79097371377797    5.99042268734803
C        10.91895336775707   13.63057552272991    5.95979090970488
H        10.18371146209504   14.17435481861229    6.53304873776244
C        12.06528261194635   14.26998293645461    5.51583284698104
H        12.22594659697660   15.31196790349074    5.74812892245235
C        13.00158912351539   13.58050182550295    4.77043470079089
H        13.89377028235476   14.08136498113671    4.42489767486486
C        14.60679581427513   12.26385025818157    2.72827931655255
C        13.95619343456713   13.12445789848529    1.84258859122307
H        12.87943151028755   13.20478536485795    1.87763841075973
C        14.67677681322551   13.84980732012073    0.91370999972126
H        14.16104673701274   14.50438551394443    0.22759871271889
C        16.05794769610516   13.74243627582938    0.86467770931850
H        16.61968418744899   14.31645737920725    0.14378947764664
C        16.71432817597172   12.90249297349789    1.74858385253905
H        17.79072922337968   12.82289559924843    1.72385257357572
C        15.99655996635475   12.16495455656041    2.67159679661532
H        16.51403761409977   11.53696444559903    3.38195769744285
C        13.83132800112673   11.49882740520587    3.71074944103237
C        14.06974840412723   10.18474732308020    3.95588250625867
H        13.54811614583478    9.68291837102757    4.75944750881205
C        15.00063036965124    9.38343289057121    3.23894637474134
H        15.34051129945759    9.74155901347732    2.26486453283665
C        16.31084223073477    7.49456667026159    2.92778456257093
C        11.85942385605460    7.11620883891661    7.31071044625035
C        11.03717396988511    6.35077809758561    8.13107590959296
H        10.05812440613629    6.07326926975789    7.76800898046427
C        11.45160519664753    5.94186197828417    9.38603868345920
H        10.79880783694940    5.34482758295677   10.00388342376614
C        12.70628073947765    6.30573060080795    9.84811460296260
H        13.03944589699523    5.99113530314051   10.82524263720170
C        15.90285907016631    7.08412929009432    1.65901910440502
H        14.92224428882945    7.37599069181330    1.31063628137639
N        16.41119768740792    6.41701270078769    5.98810956985051
N        13.97180449375200    8.27947900431694    7.00677002335013
C        16.51010894062177    2.42813880012373    7.26822455413526
C        17.52179793682752    2.53297547740916    6.31421251024109
H        17.37595975489020    3.16759603413883    5.45239249795108
C        18.68271276400319    1.79302600929288    6.43975576069008
H        19.45243183751086    1.87748828083812    5.68744341076330
C        18.85539171730541    0.94423185415024    7.52018394258241
H        19.76279651205018    0.36811939274949    7.61729902585852
C        17.85530621756244    0.83088881983149    8.47336263941673
H        17.98505041390940    0.16953659708765    9.31655041799322
C        16.68838872085390    1.55904067359789    8.34588856696452
H        15.91122650082764    1.47416105793277    9.09146849838139
C        14.01277768177632    2.46820309763985    7.33885334209693
C        12.88240106523495    3.10397476363583    7.85508322478472
H        12.94158280356271    4.13934548504608    8.15368977668078
C        11.70032842964368    2.40834087612442    8.02203456145843
H        10.83886160177722    2.91253430774477    8.43397221309568
C        11.61936781532918    1.07195242871097    7.66480734118700
H        10.69483014268658    0.53024871182844    7.79391937128644
C        12.73399627494456    0.43053637963458    7.14890234809864
H        12.67617998588737   -0.61087716194173    6.87033826571859
C        13.92248756955537    1.11729837540815    6.99552157654528
H        14.79000896002047    0.61471964846485    6.59426153293856
C        15.26654821183574    3.19567643007461    7.14195446257678
C        15.25983930934307    4.51072832645577    6.80356126443983
H        14.32137344869385    5.01460475165491    6.61612484225004
C        16.42431221204254    5.31142732840507    6.64330137714548
H        17.35680310733472    4.95212706195541    7.08378960731263
C        17.56477738922276    7.20315104344365    5.93403451298064
C        18.17817551182640    7.61496437034711    7.11672985558592
H        17.73614334787823    7.32234283154010    8.05860526568553
C        19.31689627372765    8.39585882115531    7.08830461745195
H        19.77556536627667    8.71201058679326    8.01264657732400
C        19.87120266098360    8.76039866162584    5.87177559666223
H        20.76799687115880    9.35976695894457    5.84275866432884
C        19.27254992525072    8.34955833478334    4.69415858485290
H        19.70331676442925    8.62751691804844    3.74308392919650
C        18.11237474944522    7.58214037036349    4.70096561731555
C        16.61543225689860   12.22869861497679    6.24633463687329
C        17.77306953821159   11.59503444855319    5.79167859970838
H        17.94711141172506   10.55907649543171    6.03891587856294
C        18.71479165790938   12.29347147795815    5.06058609877164
H        19.61036337313944   11.79088982139653    4.72675592318122
C        18.51332740741752   13.63050990603832    4.75745328507882
H        19.24859139509750   14.17430388632354    4.18423741383928
C        17.36700434950205   14.26991843026456    5.20142537548852
H        17.20636562780064   15.31191849959929    4.96917994696787
C        16.43067715032400   13.58042155383138    5.94678288489877
H        15.53850089831655   14.08128575065507    6.29233056178540
C        14.82541540998628   12.26371039295409    7.98885822862842
C        15.47601150462736   13.12428840239605    8.87458260649208
H        16.55277369472824   13.20461740392746    8.83954289757088
C        14.75542260390750   13.84960164177313    9.80348509999271
H        15.27114877237630   14.50415194674614   10.48962599968650
C        13.37425229928884   13.74222102187527    9.85251264555280
H        12.81251190542338   14.31620976771335   10.57342357547393
C        12.71787742767614   12.90230908158700    8.96857259321353
H        11.64147636347225   12.82270862598183    8.99329555039085
C        13.43565089630098   12.16481095638282    8.04553192119184
H        12.91817606390899   11.53685314470335    7.33514070146608
C        15.60088843042504   11.49871745567408    7.00636956341024
C        15.36245080470421   10.18464994167794    6.76118191869202
H        15.88408641265582    9.68284442556346    5.95760428619603
C        14.43152903054829    9.38333274971893    7.47806225509130
H        14.09164657649395    9.74142232910396    8.45215658701955
C        13.12120069782921    7.49453503214318    7.78910587848006
C        17.57262759515712    7.11617582691208    3.40610615331622
C        18.39478344846914    6.35068942574160    2.58569884401897
H        19.37383846441283    6.07312642006555    2.94870962483981
C        17.98024905469695    5.94177748875634    1.33076833344975
H        18.63297356188459    5.34469722814804    0.71289068167261
C        16.72556927627684    6.30571924896865    0.86876241051979
H        16.39233104620585    5.99114241625774   -0.10834693310862
C        13.52908618804300    7.08408067376462    9.05789765724979
H        14.50969963805776    7.37588175867507    9.40633496902819

