67
CSD_code = JEFGIL | q = 0 | S = 0 | Stoichiometry = C30H30N6Zn | MND = 4
Zn        0.86618224705002    3.91938210667811    2.25597169187839
N         2.98264479316686    4.16510159322712    2.49570742459846
N         1.01850276859132    5.76519617141143    3.33539035148709
N         4.09148862257642   -0.60601117883797   -4.89126988257760
N        -6.69660337809513    8.19360603237660   -0.28765748600979
N        -0.08118626805702    4.33170592614564   -0.69080969885911
N        -0.02564266543293    1.74111593365784    4.29314885701514
C         5.25930491493291   -1.05802341284234   -5.60619041225788
H         4.95381830838084   -1.61145588828970   -6.49053509053354
H         5.87295914380741   -1.71876281729080   -4.98581355165889
H         5.87377029071680   -0.21309059142132   -5.93045258065882
C         2.78667800799144   -0.96993596040492   -5.38735680670569
H         2.89425743142600   -1.62330541881667   -6.24952625198205
H         2.21878539298963   -0.08689831087976   -5.69599973041758
H         2.21343293013590   -1.50493904377725   -4.62531612295323
C         4.21727655389925    0.16095360298403   -3.77236212807991
C         5.48037773789811    0.50193266319693   -3.25314705635173
H         6.37992831202882    0.15923826559915   -3.73739260157663
C         5.59604584091610    1.27205154126057   -2.12354042178401
H         6.58255112603942    1.51311071892498   -1.75206535693491
C         4.47263362385562    1.74649274083679   -1.42940415616967
C         3.21360218245429    1.41380373656957   -1.95424411434087
H         2.31910959716460    1.77738662496380   -1.47394848947386
C         3.08871282046813    0.65050700035257   -3.08636094687475
H         2.09767924591354    0.43577154052123   -3.44911627670460
C         4.65002112478661    2.53662613125422   -0.25055727179982
H         5.67619268626211    2.80157263151796   -0.01668621934975
C         3.67457960993112    2.96292666836397    0.58903512188268
H         2.63904421020775    2.70570620760538    0.41607893416327
C         3.93458031728260    3.76093728683498    1.72595047371825
H         4.97244141832184    4.05253190702263    1.91211702845551
C         3.20971110627790    4.88526046645014    3.64936699729614
C         4.36814607551351    4.77017140693723    4.41882581075374
H         5.14382013894003    4.08335545957111    4.11322118767146
C         4.50726723595930    5.48068967068169    5.59406348097787
H         5.40477837941982    5.37097067537129    6.18420293268086
C         3.48711505607901    6.31363317511117    6.02925591509061
H         3.58911146693968    6.85375057957038    6.95861133138126
C         2.32831003036440    6.43503051537676    5.28913031177904
H         1.51670742339937    7.04352213635865    5.66041096101115
C         2.16977101429548    5.73345854771952    4.09334682639771
C         0.22940753874518    6.78430650031291    3.30663041956346
H         0.49069535686021    7.71402620450391    3.82067489370469
C        -0.98071126223018    6.75920277454191    2.57737914774549
H        -1.20689474820776    5.83530377898252    2.06401414349585
C        -1.82138391240876    7.82061019677120    2.50802824901434
H        -1.56004803994452    8.71573048165083    3.06335528216753
C        -3.04951960954500    7.88644354172666    1.77813302260447
C        -3.48528965499471    6.87549127078669    0.90670197994166
H        -2.87186391239492    6.00288719540290    0.74786859430586
C        -4.67251874649013    6.97750602609980    0.22848136761391
H        -4.95392058244796    6.17275018570434   -0.42955618289378
C        -5.51230451729291    8.09822215639090    0.37895120745217
C        -5.07207235903998    9.11716700605221    1.24453729080559
H        -5.66718015204814   10.00346511196319    1.39102047873104
C        -3.87872374280392    9.01034031752273    1.91307937187081
H        -3.57150372591485    9.81311463075740    2.56918591771875
C        -7.10714642101816    7.15808648957407   -1.20430909197259
H        -8.04708434839336    7.43853665705178   -1.67299094861297
H        -7.25408689533446    6.20534075974700   -0.68651348257091
H        -6.36336497877822    7.01572372903916   -1.99307766179051
C        -7.56291770618615    9.32848498406806   -0.08580787160273
H        -8.47824151475620    9.19443199959708   -0.65668979113833
H        -7.08666838383801   10.25638224820500   -0.41799048835093
H        -7.83355657267139    9.43286309828644    0.96886008282409
C         0.29339888014436    2.54001113092138    3.52979591286457
C         0.29029313617539    4.20449448243220    0.39155517236035

