101
CSD_code = JEFHOS | q = 0 | S = 0 | Stoichiometry = C30H57F3N4O3P2PdS | MND = 4
Pd        1.39174720458479    0.74491745136099   18.97711707210111
P         1.39255863262405    0.86610891845177   16.62662890120446
P         1.56350683985975    0.91797665319876   21.31311178595331
S         3.25214617024616   -0.96745756606151   18.85439148433861
N        -0.64864868734169    2.03912144093950   15.08741280711188
N        -1.32743531431688    0.35162822544651   16.32665659360026
N        -0.13880370382711    2.01345611321043   23.19025169974779
N        -1.19377352229244    0.60676324086422   21.86565609706503
O         1.95125144919986   -1.58749629758034   19.00747534231289
O         3.59845336758941   -0.55833411853822   17.52235246780530
O         3.65158725248049   -0.05061405737030   19.89085411398773
F         4.13613046460809   -3.43464095211128   18.30462726411184
F         5.68220845155735   -2.12404942646145   19.04689376643768
F         4.20044100595788   -2.91709350663338   20.39919732301646
C        -0.07041939698788    2.16400013061265   18.95259654421895
C        -0.27785333681947    1.14710172394616   15.97574210654474
C        -1.97222259611306    1.83985417511392   14.84797553607972
C        -2.40668901179832    0.79119132285791   15.61295229702429
C        -2.70895756372133    2.70312624566222   13.86549696079006
C        -2.61398928877671    4.16008440055685   14.33264137129080
C        -4.17540907130486    2.28252452856600   13.76811258901224
C        -2.03283582070005    2.56117069754244   12.49672271533939
C        -1.34941368082672   -0.75405316129560   17.24571011223874
C         1.96052683257752   -0.35443256730416   15.31413160881269
C         1.53206146581021    0.09140142944964   13.91864947544610
C         1.47213324908019   -1.77076791103171   15.60297339219519
C         2.45476242943854    2.35113382431326   16.20344814699252
C         1.70052658046431    3.64618310555806   15.91820602619916
C         3.44124588321498    2.54515877724635   17.36044971380673
C        -0.00974616474299    1.20275426766769   22.16322847525641
C        -1.43912563874074    1.95340977927937   23.58149248849029
C        -2.10744261333002    1.08065656265606   22.76350418713402
C        -1.92248616167189    2.76420167934905   24.74882001189587
C        -1.64665866153762    4.24338857044867   24.45582050404163
C        -3.41785258586173    2.54706556038258   24.97988978130204
C        -1.13414623631521    2.33627167272396   25.99248995942902
C        -1.46643243789335   -0.33810727530056   20.81987812463901
C         2.49068182180971    2.41257354498193   21.91341295169874
C         1.92302246069475    3.67554021595425   21.27406391874123
C         3.98146027117141    2.30105258183496   21.61941342368734
C         2.22024021193324   -0.47781021805154   22.37982063246404
C         2.30660858310733   -0.09635635453745   23.85542048908296
C         1.33929804690829   -1.71231280895110   22.19333601329542
C         4.38756689209758   -2.43749832369835   19.16123354835952
H         0.19992349415574    3.00207449026704   18.31347782055107
H        -0.98764997165720    1.73082673369024   18.55276399301583
H        -0.28850415364991    2.55144951945360   19.94657001334473
H        -3.36615666123376    0.32626683799667   15.70949413369089
H        -1.57129297560125    4.44842318081337   14.43065724032840
H        -3.09642288054293    4.28069943822591   15.30024312834762
H        -3.09901477372864    4.81960173627584   13.61658892083237
H        -4.25862445229511    1.24944285074752   13.43811695020728
H        -4.69481145171330    2.91409578835173   13.05102747391049
H        -4.66831795107033    2.38154511152832   14.73257700824311
H        -0.98069931935017    2.81900069699580   12.57858176785926
H        -2.50451830266316    3.21951256777415   11.77083719843940
H        -2.11057687302122    1.53661325164823   12.13869214705736
H        -1.47983815688144   -1.69753308006057   16.70998831195056
H        -0.40539231812272   -0.79566676092088   17.81004540579324
H        -2.18754784254107   -0.63887328922498   17.93638444303819
H         3.05084803563654   -0.34428605888744   15.38704449667778
H         1.72452182928181    1.14884816889449   13.75449843774761
H         0.46903258085898   -0.07866316616239   13.76160367787938
H         2.08022441777372   -0.48113469532323   13.17243093771482
H         2.00706923450942   -2.48068702287471   14.97451253466360
H         0.40981090637220   -1.86557564966010   15.38591895099278
H         1.65634287985870   -2.03677033758764   16.64238866985179
H         3.02350417604097    2.07212272943709   15.30837826298423
H         1.24622333542045    4.04151257910948   16.82341521314117
H         2.39596995190114    4.39219207141655   15.53671806402749
H         0.91495510367721    3.47803229973142   15.18745756440734
H         4.05496008223806    1.65335467327123   17.49027147785206
H         4.09536831690681    3.39336496479293   17.16038165450431
H         2.89612228228941    2.73539914714058   18.29836432211871
H        -3.12890110479539    0.76117294065184   22.74273584194135
H        -0.58856953099354    4.38496884278409   24.25376584768495
H        -2.21162996644388    4.56958549874905   23.58496533857630
H        -1.93190226850628    4.85821087199082   25.30634371413742
H        -3.75250181653884    3.14624854104384   25.82365405505624
H        -3.98919949321725    2.84109954134551   24.10231547302674
H        -3.62621663908129    1.50199528991898   25.19791894117110
H        -0.07012784387443    2.46645193958895   25.81489332052288
H        -1.42587638769544    2.93643277477735   26.85126854921835
H        -1.32227009178579    1.28897440916396   26.22056510280607
H        -1.73478123642529   -1.31076744810893   21.23963019781514
H        -2.30093808953090    0.02328291620024   20.21486824342769
H        -0.57037233813223   -0.45213796521938   20.19022252991406
H         2.30702717721591    2.45903211262235   22.99161772265538
H         0.88538534820183    3.81785703035410   21.56557207933621
H         1.98483861836858    3.61227795468224   20.18704442971077
H         2.49173858248851    4.54379192783495   21.60268395325198
H         4.50086998273027    3.18506676713193   21.98785640117885
H         4.14618915676287    2.21551158204286   20.54643322857937
H         4.41632448842591    1.42156592694148   22.08678993569934
H         3.21810398571661   -0.70444279395488   21.99873190031568
H         2.50044453084697   -0.99166181670592   24.44415482840914
H         1.37535862310636    0.34765789023688   24.20231055622164
H         3.11458061953893    0.60570049505378   24.04039676540619
H         1.80347195635053   -2.57294372411590   22.67227476157105
H         0.36080765886025   -1.55836936722703   22.64668247649678
H         1.22331346140287   -1.94414320713406   21.13481376188918

