77
CSD_code = JEFHIM | q = 0 | S = 0 | Stoichiometry = C24H46N4P2Pd | MND = 2
Pd        3.93776446691131    0.17255650178003    0.03595736288613
P         3.52386139655120   -1.52528196994945   -1.42762257388396
P         4.34077538953836    2.08651392141032    1.20494089677737
N         1.65599589110499   -2.72121786174876    0.28842510400284
N         1.89554195881296   -3.76703362453915   -1.64195221839633
N         6.31071467340808    0.86108547376215    2.78030719707337
N         6.02271359180744    3.00676323927038    3.21682749380864
C         2.28819773840270   -2.73753464759526   -0.91905194285489
C         0.82518549558918   -3.79955178182644    0.30662801386719
H         0.20217914931635   -4.02329074173775    1.14880112120866
C         0.98727313780838   -4.43154103329113   -0.89461819591229
H         0.50912686331490   -5.31760334513658   -1.26272006106362
C         1.80864015684869   -1.77826802658806    1.36219813060104
H         2.52902985495432   -0.98323879711573    1.04878983651065
H         2.18956942035583   -2.28143906627833    2.25509839929435
H         0.84660227599732   -1.31798240066643    1.59990386788170
C         5.01689076081100   -2.61924244093576   -1.74397540046724
C         6.21567317360146   -1.68279801978664   -1.91276810049201
H         7.15063596570048   -2.23604088717753   -1.83312089127659
H         6.19814677946763   -0.91257786703383   -1.12907053702646
H         6.19642116617853   -1.18652137081973   -2.88020740512870
C         4.87876841218301   -3.58374005309474   -2.91215821879623
H         5.67770573891010   -4.32400590248039   -2.87641775994307
H         4.94875062930167   -3.05976337273664   -3.86196810843788
H         3.92112910479863   -4.09749812694964   -2.85988963597890
C         5.18263935841855   -3.39542455572130   -0.43214987266432
H         6.15889810258303   -3.87646662156875   -0.39227144190633
H         4.41809417289076   -4.16439221890951   -0.34120479539134
H         5.10056065303475   -2.71593247701141    0.42322518678465
C         2.73621322219609   -0.78959217456957   -2.96644699502445
C         2.25859386027630   -1.77146181935191   -4.02773518751701
H         1.56314392531376   -1.27020461536559   -4.70026913942172
H         1.75284809261999   -2.61777790555844   -3.56847266307994
H         3.08663021510358   -2.14778297136946   -4.62118771443114
C         3.73204507114513    0.22142422060412   -3.53540395218443
H         3.23125555303671    0.91482562275889   -4.20976252363439
H         4.52572232512864   -0.27550049919187   -4.08924476822027
H         4.18167039497939    0.79491231908110   -2.71486273212695
C         1.54249146007939   -0.02665368576936   -2.37523699559223
H         1.08281520309442    0.61334936849248   -3.12676651997396
H         1.88051079725386    0.60787076274347   -1.53994369937105
H         0.78701575754195   -0.72038462036707   -2.00635903655588
C         5.63057354170477    1.99905203976415    2.46352892086490
C         7.17167962421979    1.18917585170172    3.78253732605037
H         7.83433146206631    0.47073359195145    4.22090568460764
C         6.97903775449979    2.51846434997039    4.03667201041998
H         7.46662312726355    3.14739866771028    4.75494395392102
C         6.17497950228775   -0.44844602128853    2.20400824563355
H         5.42002258359757   -0.40729097973896    1.38083250579566
H         5.84502776068400   -1.16265641221322    2.96333922873329
H         7.13231852141453   -0.78290260262382    1.79717324097653
C         5.04576097118543    3.35906971772878    0.01589550552075
C         6.23970280051678    2.60321006245690   -0.58399152580069
H         6.65044224257797    3.14274039474163   -1.43604432867336
H         5.91721404160822    1.60703221496932   -0.92777201208653
H         7.02896979449711    2.48060418427281    0.15763532587663
C         4.00026974688471    3.57174496708651   -1.07916457832150
H         4.45390777465693    4.02346022022704   -1.96041788519330
H         3.19987044464732    4.22493906782586   -0.73828587332656
H         3.56716205053411    2.60497648324019   -1.36555331477506
C         5.50927251738288    4.67837200739003    0.61860949581493
H         6.16266398818926    5.19138753723717   -0.08653266263997
H         6.05704478946642    4.50718910266468    1.54249813885180
H         4.66949613317231    5.33230177738900    0.83425592220586
C         2.86910353545546    2.67160039195375    2.21379238899927
C         2.77893536933173    1.64654534632909    3.35040126751814
H         1.81957504787888    1.72376000820934    3.85994097080833
H         3.56872421394968    1.81131898942236    4.08064075859628
H         2.87474636227466    0.63023809571861    2.95277727336191
C         1.63831621226565    2.51782772259479    1.31716227650490
H         0.72380274521436    2.57973499748079    1.90566220638954
H         1.66456256740814    1.54066524805588    0.81493685759883
H         1.60462468795284    3.29307525546724    0.55523087883178
C         2.98863676486782    4.07791559042315    2.78130578937763
H         2.21382788329306    4.24096840204306    3.53006023698480
H         2.86519661883574    4.82568209798598    2.00207666423240
H         3.96223546182990    4.20955570419334    3.24879558239575

