56
CSD_code = JEFJUZ | q = 0 | S = 0 | Stoichiometry = C27H25N3Zr | MND = 13
Zr        2.13885908699505    2.35049885856717    1.79854950166306
N         0.56659927871788    2.45165804093019    3.07447632481912
N         0.27602324190544    3.16243923051506    1.85953230656856
N         2.00906726134363    3.09138094603917   -0.47063541364347
C         2.60037977144965   -0.02701838969917    2.31015362395714
C         1.41427085529297   -0.06067901897876    1.53549957715713
C         1.74707312868749    0.29047846094358    0.21573949871328
C         3.13637325000732    0.53147632107509    0.16263456159484
C         3.66357827511396    0.31741718849873    1.44663985282978
C         3.54217476552312    4.44294479244652    1.85175844377774
C         4.41974988280783    3.33396723393829    1.92265572887653
C         4.22130747824318    2.70627575347666    3.17399825173267
C         3.22489311848638    3.42110554703849    3.86875161141141
C         2.81952455816136    4.50055080440738    3.06050163015321
C        -0.29469950674203    1.45705383904021    3.43263936082819
C        -1.54702884523551    1.25234095477647    2.82336400906457
C        -2.38434272680755    0.25105431237040    3.26832884846365
C        -2.01235610552318   -0.56978843590289    4.32202729795548
C        -0.78662997959231   -0.36824515272871    4.94382804665730
C         0.06238285472207    0.62694435325722    4.51475390283786
C        -0.03901094867893    4.48603598471524    2.05624442833456
C        -0.55611798858264    4.94816751799782    3.28297365799442
C        -0.91841539825733    6.26647169035089    3.44991469185472
C        -0.78655905654729    7.17534770831026    2.41056048723609
C        -0.28610364851118    6.73789001883916    1.19415945930418
C         0.08318139513171    5.42114485104726    1.01077245629394
C         0.81290027778957    2.91139610700000   -1.05261799005171
C         0.58504849254811    3.12146339455171   -2.40164220549461
C         1.63392616366470    3.54484470741313   -3.20674790295192
C         2.87242203309460    3.73607592912414   -2.61483662520343
C         3.01118108087472    3.49717958770254   -1.25720831441432
H         2.69606836514318   -0.37788445308919    3.33217227116066
H         0.45521126954335   -0.44242965581470    1.86016073399894
H         1.08031103418011    0.23561486661162   -0.63617805981226
H         3.71460962738432    0.70047107795215   -0.73782010092417
H         4.71706628803758    0.27936922810849    1.69057898959071
H         3.53533921194791    5.21566219995117    1.09062641363285
H         5.22176081489322    3.10488219408207    1.22847103778667
H         4.83449739834719    1.91905485745894    3.59699182471874
H         2.90798911211113    3.24438793670212    4.88917718249961
H         2.15092484453683    5.29592003220553    3.35798761745995
H        -1.84050055791421    1.90561318618983    2.01122526613246
H        -3.34296610715648    0.10700117088889    2.78865073460175
H        -2.67338190570044   -1.35214919704171    4.66337829590273
H        -0.49808587516030   -0.99782315868746    5.77434045775668
H         1.01459029539857    0.80551651366926    5.00400328477037
H        -0.66576699394543    4.24047791226147    4.09312592050482
H        -1.31198471102741    6.59265088132596    4.40258953597753
H        -1.07241937171899    8.20766191026056    2.54458200409564
H        -0.17896569212547    7.43708924293459    0.37557194966657
H         0.47007177636471    5.10537146228425    0.04909378792584
H         0.00765103562799    2.60766942026602   -0.38499361362163
H        -0.39930669930051    2.96279503492326   -2.81277096194180
H         1.48875985039335    3.72231579067304   -4.26121840694519
H         3.72015247265703    4.06658786190601   -3.19421888244997
H         3.97542247139875    3.63790054692105   -0.78209639080860

