110
CSD_code = JEFKAH | q = 1 | S = 0 | Stoichiometry = C36H66N5P2Pd(1+) | MND = 4
Pd       -3.79269457757173    8.01215474493307   20.62907849073534
P        -3.55593101279661    9.29431005972059   18.72586180590648
P        -4.29445153643602    6.61321793371766   22.38625098614817
N        -1.96285448198385    6.87023856323025   20.15420055011126
H        -1.35718310723087    7.57459574954840   19.70574893720353
H        -1.54252233056548    6.64320970020443   21.06571688293855
N        -1.61134904250927    9.23817455555630   16.50588476526385
N        -0.95351631120414    9.01747628793941   18.59790137865818
N        -2.91641282210106    4.25400432541052   23.48762256236939
N        -1.78481063952743    6.04712171961868   22.88095558379215
C        -5.27150014323301    9.32141568952805   21.29349153486379
H        -4.73556117575336    9.97190094561574   21.99704759680736
H        -6.09486987678536    8.84960633096557   21.82773946911845
H        -5.70316650220696    9.95031089709027   20.51682444530173
C        -2.02687298906483    5.66964763212464   19.31689494027830
H        -2.64003061447589    5.88571707486793   18.43457082224830
H        -2.51120248857766    4.87175192163459   19.88972657349013
C        -0.66014617797211    5.21335083486623   18.87358693428649
C        -0.18040277183996    5.53466340358408   17.61130535146021
H        -0.80547569467952    6.09158041351875   16.92713149120208
C         1.08546383995194    5.13575711176097   17.21926077867822
H         1.44171119447959    5.37205267540553   16.22752704545383
C         1.89049553932086    4.42583027347436   18.09387340370807
H         2.87914641137978    4.11834529900537   17.79027280917256
C         1.42089543875717    4.10408600032737   19.35642252411525
H         2.04556727944620    3.54549748404482   20.03714070688460
C         0.14956740268214    4.49098290307084   19.74127099406175
H        -0.22684958574875    4.22524902641404   20.71969420362512
C        -2.00624477724818    9.11845792314666   17.80329847695634
C        -0.24519546519247    9.20979938785284   16.51816237719111
H         0.31753036041785    9.27653249590932   15.61061542474701
C         0.15703718626643    9.07917094685165   17.82125404366844
C         1.54228243518221    9.09996980715252   18.39952842788170
C         1.59097809258647    8.21801449689051   19.64796671447086
H         0.85499121345282    8.55489993588208   20.37233700318735
H         2.57605803908287    8.27092683769989   20.10333970366800
H         1.38753440350103    7.18256446448776   19.38679344695948
C         2.56016328882389    8.60485143101312   17.37157488999831
H         2.30662793943148    7.60181065439299   17.03730014725081
H         3.55016470914017    8.57703734197902   17.81941914662574
H         2.59784273811526    9.26554946833324   16.50927003209384
C         1.86449739938948   10.55067226681301   18.78818082722280
H         1.80887765234623   11.20314443193733   17.91930259127904
H         2.86810050024347   10.61076655447841   19.20075896035190
H         1.16141631419310   10.90774046632263   19.53733705263248
C        -2.37967817187942    9.38611417856332   15.29860408752834
H        -1.69331373031460    9.40095441879060   14.45333295329076
H        -2.93670691758755   10.32431135748025   15.30128080958626
H        -3.07089849778627    8.55324720877505   15.16467063145813
C        -4.88480488608068    8.97600572953450   17.46176177632376
H        -4.65846977868359    9.52400072639266   16.54387056976170
C        -4.85243507216773    7.46842398279917   17.21494709820210
H        -5.01984060570250    6.95365153860753   18.16934790686475
H        -3.89136742292354    7.14588687388016   16.81442022303578
H        -5.63375157686423    7.16774459575142   16.51980873589870
C        -6.27255371542025    9.38404312141100   17.94013047906137
H        -7.00327601320167    9.17686258797662   17.16016150088064
H        -6.32144588557661   10.44599938578055   18.17037530245086
H        -6.54912114208566    8.81074422298422   18.82420295977139
C        -3.48816078661084   11.12054878755035   19.08248113781782
H        -4.46756450380506   11.39770548028829   19.48564225613867
C        -2.43717248105072   11.29477947578352   20.17860682811803
H        -1.43855037201633   11.15419075908680   19.77010705248632
H        -2.58336446114463   10.54693891629546   20.96899080385488
H        -2.49662544319078   12.28817729491673   20.61718839527580
C        -3.19308738035542   11.98891768675055   17.86579652448361
H        -3.18452125107439   13.03666346595121   18.16029333769767
H        -3.95286926939308   11.86520571902306   17.09595041435529
H        -2.21605947350668   11.75527328184250   17.44725500639947
C        -2.98086366877327    5.48337764746230   22.90637365300751
C        -1.60889891979603    4.06378373988693   23.83375828629853
H        -1.28581478053460    3.15833786956436   24.30394552373674
C        -0.91314530328282    5.18501291183263   23.46132063219333
C         0.52575922447781    5.53445098465243   23.71496197511760
C         1.40684663194785    4.28718368827094   23.61584501732693
H         1.15299330716592    3.56768048884155   24.38987430782917
H         2.45050150251875    4.56425890654021   23.74020759624447
H         1.29336730732987    3.80803615359998   22.64628473899939
C         0.99074788960709    6.58739234288160   22.70826176498806
H         1.00273124662398    6.17752771096862   21.70194574411189
H         1.99598329194129    6.91831617951527   22.95434476351691
H         0.32534334439558    7.44617209980021   22.73230475130179
C         0.61665205012484    6.11461948034653   25.13430839562580
H         0.01645266677655    7.01822053530363   25.21356309852277
H         1.64810706191076    6.36459794830294   25.36847091731660
H         0.26051887026758    5.39524486257202   25.86850449801880
C        -3.94602716913475    3.27902481631995   23.73069133428007
H        -4.71513527358201    3.67759875502036   24.39320174235190
H        -3.49484940504920    2.41349495924517   24.21329325034160
H        -4.40660116448486    2.95061307601533   22.79786320810657
C        -5.73785209762995    5.51006666752206   21.97985241170917
H        -5.90350415273049    4.79245476800053   22.78738510080187
C        -5.35637639411004    4.79087620804746   20.68709743913203
H        -6.19062340284511    4.20483051034245   20.30653701189866
H        -4.50648745093255    4.12485166878191   20.82929466398711
H        -5.08377463610082    5.54105907691473   19.93337887222007
C        -7.01863948935696    6.30470756466403   21.75679522850495
H        -6.88828537105834    6.98996422659075   20.91827122229343
H        -7.30022317834457    6.86955591987782   22.64278655345163
H        -7.83612614841787    5.62671899915219   21.51784684416262
C        -4.63570765754422    7.46723484146272   24.00550796060892
H        -5.50641059586312    8.10939048639400   23.83785727772750
C        -3.41996749613243    8.34952138245086   24.28854225935419
H        -3.64407788429987    9.07879029135350   25.06355596996503
H        -3.11249666651955    8.87888898005242   23.37956951628883
H        -2.57847110976779    7.74332596214952   24.61698515374274
C        -4.93243711888451    6.52683805487536   25.16692498651669
H        -4.07883607578227    5.88469621714967   25.37539264479283
H        -5.80816204282019    5.91141626229303   24.96871557027471
H        -5.13217615631330    7.11061749041966   26.06360848851010

