30
CSD_code = JEFLEL | q = 0 | S = 0 | Stoichiometry = C12H6CrF5O5P | MND = 6
Cr        5.59184949490308    3.89897679338525    1.70850531559042
P         3.79913611383992    3.34748927178162    3.03219619657208
F         3.78271393693797    0.73723426727554    3.00813747801181
F         1.74631771291605    1.41931981627681    2.85161949795365
F         3.07565915872998    1.64381717351994    1.17534425452376
F         1.28312466983797    4.02047163685659    2.23307359018397
F         2.71331160601530    5.63313113011008    2.34957941094090
O         7.61931718790145    3.42064676605519    3.88431296118846
O         6.15677766255768    1.09590959873703    0.76651944887711
O         3.76214487065774    4.44779761640420   -0.62842314098657
O         5.60621182816589    6.79420053640877    2.52812301421013
O         7.88913646979127    4.67670105528949   -0.05929937574281
C         6.81699078082646    3.58927975487897    3.08138810194878
C         5.86561183486284    2.13505744994318    1.14286151843892
C         4.41181049300693    4.22496647211587    0.28334432378888
C         5.52140295824807    5.68982666688181    2.23532401188181
C         7.00515870396302    4.37757310385085    0.60698608085048
C         2.99851568577484    1.71253588510903    2.51331772543412
C         2.29968460720967    4.49621986874045    2.98464202373254
C         1.93185136734297    4.77927759580956    4.45383093554736
C         3.30573800499831    4.78354084540001    5.13182730672737
C         3.63235485523098    3.29646348854482    4.90635416964798
C         1.33475511249820    3.50538725113215    4.99377951548972
C         2.32008085960211    2.64754240561222    5.23692800495779
H         1.32762214799819    5.67850781690617    4.55385199736964
H         4.01392361039646    5.46673003171561    4.65383999922756
H         3.23111819811932    5.02105349361397    6.19245452288654
H         4.51924950305359    2.90566839259386    5.40354261463135
H         0.27878157953697    3.33978955482737    5.08581891031984
H         2.23254898507709    1.63518426022322    5.58651958579425

