77
CSD_code = JEFREU | q = 0 | S = 0 | Stoichiometry = C36H34N4NiO2 | MND = 4
C        11.79657095844343    6.41974471712930    2.62354834435270
C        11.20350629265105    5.45581300978729    3.43895776687459
H        10.13648738743903    5.28962744700357    3.40585815614880
C        12.00536086121205    4.72285002166935    4.28411273584362
H        11.56472707162282    3.97218707176338    4.92401781832786
C        13.38744438214076    4.92651929842695    4.33518989582994
H        13.98211835828787    4.32956084019583    5.01084011071939
C        14.00167523639410    5.87184165355784    3.54232048806645
H        15.06946195608854    6.03086219886218    3.58203854097701
C        13.19819261399445    6.61725206381339    2.68934380374307
C        12.37515968680773    8.04787376837743    1.20061327773412
H        12.39978159937310    8.84359796166729    0.47755910227813
C        11.29647431630430    7.34374334150077    1.65498532704837
C         9.87113088036199    7.61604924862117    1.31774139606471
H         9.27611859859103    6.70355995943789    1.37203590414180
H         9.80125422043488    8.03070396538001    0.30957458068915
C         9.28600548505415    8.65712716226346    2.30070943025125
H         8.28725261012672    8.94062538179634    1.97407685097851
H         9.23555241555919    8.21555943867000    3.30385237505347
C        11.02660070099612    9.84049142792293    3.25197996308957
H        10.96917718912906    9.06305911024815    4.01904757331716
C        12.09397179658522   10.75722170472451    3.43249066033712
C        12.92833973684454   10.63220200645548    4.55747087337075
H        12.72298115205538    9.84494034160583    5.26942480327266
C        13.97736424080991   11.48834108777831    4.74878571297741
H        14.61579945364717   11.39638847551224    5.61395097577537
C        14.21905893668520   12.49656660204560    3.80951655693732
H        15.04602642460840   13.17502169584404    3.96931460314331
C        13.44125224595797   12.64928376224736    2.69006070827964
C        12.33846232112557   11.76901775799738    2.46366932033415
C        13.71693498308391   13.72961926200522    1.68829984016617
H        14.53536109290558   14.36367631384133    2.02017804185514
H        12.82839332494419   14.34456022249744    1.54784033582939
H        13.97918306651651   13.29248552720367    0.72482398421890
C        11.02108070947893   10.27674746042545   -4.81681661102819
C        10.77291766986932   10.28454645980471   -6.18321969432343
H        10.16814662652700    9.51688167781150   -6.64363311646841
C        11.32350861494500   11.30597117089491   -6.92688087093292
H        11.15041150563590   11.34290747605118   -7.99232500347392
C        12.10457663651797   12.29979630559685   -6.32974827679552
H        12.51508628490543   13.08348627664740   -6.94975731000234
C        12.35718629787624   12.29645514434821   -4.97673058217121
H        12.96290730420261   13.06854975183491   -4.52488784416146
C        11.81448898347252   11.27442581682192   -4.19786344245819
C        11.86028247057305   10.95774599281561   -2.80530908981979
C        11.10763566361819    9.82964544953883   -2.64137561192457
H        10.88955032169300    9.29591859575093   -1.73334455050038
C        12.46275961107789   11.77082301637734   -1.71198866519090
H        13.35745900767861   12.28897839663408   -2.05932721681950
H        12.72529635509823   11.12465923293208   -0.87149409342680
C        11.44113972358867   12.81629459646627   -1.20577439078272
H        11.84097983641165   13.31436434007580   -0.32457956824513
H        11.26043324061806   13.55438297281295   -1.99718414446487
C         9.31803957241796   12.12870582238025   -1.79861933451449
H         9.51158703009022   12.72777870973200   -2.69285543308177
C         8.08673050538445   11.42532580963413   -1.82683932335675
C         7.23661390314404   11.57007282220193   -2.93757339750264
H         7.53966313186254   12.22958995859202   -3.73882522218286
C         6.05227855729743   10.88990527508660   -3.00522541264218
H         5.39880926795908   11.00033492696890   -3.85692848911878
C         5.68650812846527   10.04551162031582   -1.95153105669341
H         4.74409520701189    9.51763746207573   -2.00563039540892
C         6.48726091668058    9.86420714059870   -0.85267683017241
C         7.73527071174047   10.55419731893079   -0.75922256926998
C         6.08250529208255    8.95387596417980    0.26714511818035
H         5.07561692430312    8.57490529748768    0.11095546856728
H         6.11517897855295    9.49055303513481    1.21472343639998
H         6.76860803041119    8.10956925989072    0.33499026271591
N        13.51839410025269    7.60935022531688    1.80859009422421
H        14.43971868134095    7.98124747740246    1.65508460503684
N        10.61132665761248    9.41118643308524   -3.84442447864679
H        10.01359254632749    8.61477859767970   -3.98284166308401
N        10.14444860879241    9.82301825088157    2.30780936432969
N        10.20987226225192   12.13591231337402   -0.86339084913037
Ni       10.11507031804571   11.06016204844146    0.78005621497109
O        11.62776398020909   11.91000526924577    1.40223602959614
O         8.49021822719549   10.35671497986877    0.26200408572848

