97
CSD_code = JEFWID | q = 0 | S = 0 | Stoichiometry = C37H46BN6OPRuS3Si | MND = 6
Ru        1.70510998011583    5.92968303765782   13.60128108237016
P         2.84817446893254    6.92029235760983   15.33440932423767
Si        1.10236163480148    3.91019530802491   14.71671597292890
O         3.93793656268267    4.47381875426992   12.27092728467045
C         3.15458670993188    5.05047678653654   12.88968632695442
B         1.52681563606358    8.05796120492941   11.57611984830475
H         1.93408610996335    7.48440656047119   12.57942015006748
C        -0.75034308623242    3.87887955560030   15.34788883971298
H        -1.16298158981041    4.88795596543932   15.37149854550707
H        -1.34068998467744    3.33342149322863   14.61095035363732
C        -0.95308609700474    3.24409221453038   16.71724316902126
H        -0.61122567003777    2.21288654562169   16.71874382752004
H        -2.00856414381388    3.25203010953969   16.99053885252573
H        -0.39964928280765    3.78639190547267   17.47966505799828
C         1.18850203183258    2.36242538314409   13.54209962283653
H         0.52485951230293    2.52403184352414   12.69209124545990
H         2.19628651753065    2.27536445942792   13.13559570978999
C         0.80404735898186    1.05267302611994   14.21754718343194
H         1.44059210949743    0.85817663190407   15.07622310978322
H         0.90307958005960    0.21731336617316   13.52422816667884
H        -0.22691120985914    1.08681470936840   14.55891463982077
C         2.26195605128668    3.46912929574991   16.20763631703085
H         2.41640530713836    4.35540049152263   16.82506237545764
H         1.78409643928787    2.72413403081501   16.83974867296707
C         3.61577742665035    2.94285886257449   15.75630850686040
H         3.50756921839619    1.98722899112002   15.25196047783245
H         4.28629584629058    2.80726590606756   16.60477304602481
H         4.08214245566316    3.63970778755820   15.06323835434152
S         0.51606781176800    5.02595816681928   11.56181200878183
N         1.75579495855256    7.13093075704733   10.36142628225531
C         1.40625859403358    5.83246655559737   10.36848502260509
N         1.79810984065237    5.27001024708403    9.20548729441117
C         2.38840440335140    7.38338825917646    9.17597585188376
H         2.78093911833209    8.35146243976275    8.94347469029585
C         2.41856750099521    6.23746394827987    8.45637851966556
H         2.83281724660168    6.02841227663861    7.49230863163361
C         1.63532578658090    3.88856330723000    8.85934606587308
H         1.38917537505317    3.33871356348064    9.76808760242122
H         2.56145076975283    3.50245013401699    8.43462306554713
H         0.82483417487584    3.76298463024557    8.13800898268486
S        -0.40268330995390    7.11241958438220   14.13040812273710
N         0.01676559364546    8.30335261949710   11.68641598574508
C        -0.79142359334499    7.86985191466095   12.67785791242051
N        -2.07107483159212    8.17865916436623   12.35532689305713
C        -0.78210591804432    8.86366760003243   10.72049801645760
H        -0.36716227764075    9.24771790581701    9.81121057871384
C        -2.06835936787901    8.79646712772706   11.13124616703335
H        -2.97091576496959    9.12558227471274   10.65944196355303
C        -3.20931763004590    7.85574579704734   13.16438513823237
H        -3.08172995138702    6.85106430816361   13.57114911934089
H        -4.11016785381555    7.89973008748101   12.55623651682679
H        -3.29609271511457    8.55257808844391   14.00128308641109
S         4.66389348792647    8.05436165048225   11.60296474430532
N         2.30450998880655    9.34565314059490   11.40061198464924
C         3.66476235826437    9.36157901985738   11.43200044647808
N         4.07017490987625   10.65364704333145   11.28195379704096
C         1.87365301275029   10.64266422440456   11.25638137456153
H         0.83291875634333   10.89193017797504   11.23107951717315
C         2.95465588124384   11.44786961409180   11.17892265599761
H         3.02594939352503   12.50913529723104   11.05936406926968
C         5.43561679803414   11.08247323190612   11.23810406762657
H         5.61065261594171   11.87176270067070   11.96962503152297
H         5.69346788919125   11.45091362214234   10.24210268421214
H         6.05621970049377   10.21701414921476   11.47340131641575
C         3.26238581311662    8.67105919754047   14.94414052842248
C         2.17497474140521    9.52585222328307   14.77195670278305
H         1.17033431495819    9.12820200672605   14.86065927624648
C         2.36754070517344   10.86684913193779   14.50612943455872
H         1.51665134936080   11.52068073528820   14.37438147730260
C         3.65384004634120   11.37449480689637   14.41564562642079
H         3.80649132777759   12.42605734735515   14.21603278151020
C         4.73824683752635   10.53246602269299   14.58764839122233
H         5.74419355655859   10.92271757434391   14.52380127527282
C         4.54864409602314    9.18582292292850   14.84732931221437
H         5.40569892730939    8.54194748164299   14.97540055524116
C         2.07183194226140    7.26901352815948   16.95572196402390
C         2.69050849809654    8.13647188569649   17.85409347644228
H         3.63819745436838    8.59031846718754   17.59559410011035
C         2.09484762940038    8.41317423557416   19.06966406048606
H         2.57942975722418    9.08331649821818   19.76537583205217
C         0.87694780438617    7.83585010775770   19.39635775676729
H         0.41381763501032    8.05741416689318   20.34700855254438
C         0.25542777090659    6.98097607577147   18.50255800813783
H        -0.69595738177437    6.53395515205575   18.75121731028110
C         0.85106434870464    6.69792131619704   17.28534944558995
H         0.37393584873510    6.03658416129160   16.57781275995144
C         4.47843469346862    6.25743163865647   15.80054389505704
C         4.81255724912335    5.85221616858779   17.08663440452830
H         4.09543453995915    5.94088800448578   17.88999454720164
C         6.06652692723420    5.32315060326717   17.34023682931369
H         6.31969493715900    5.00585061733144   18.34181581416454
C         6.99170695641341    5.19453699434534   16.31875725519369
H         7.96754016059155    4.77816345556643   16.52245785028584
C         6.66250075679872    5.59503510702157   15.03303744498747
H         7.37879339302713    5.49459023793661   14.23108825058315
C         5.41079548217647    6.11875195950001   14.77305672724299
H         5.14517923493763    6.42847895500365   13.76939708251950

