106
CSD_code = JEFWOG | q = 0 | S = 0 | Stoichiometry = C36H66P3Re | MND = 8
Re        0.53049597306621    4.92287847910029    2.39968552735787
P        -1.82565425840478    4.92244666060263    2.69409583709263
P         0.55623621185302    2.50943714250340    1.77139173041973
C        -2.71248060809192    3.52258443610102    1.88957284506896
C        -2.21618367952565    2.17741175323995    2.41923806830959
C        -1.06610999004707    1.61578735758311    1.58847508314602
C        -2.64188295584755    4.92246674662248    4.33977180245013
C        -1.86744249057056    4.92245330817544    5.49345513865476
C        -2.45826663833788    4.92239574117318    6.74505800514583
C        -3.83628093279072    4.92235418025544    6.86086221909609
C        -4.61906395709120    4.92236595679614    5.71744248238966
C        -4.02907099311719    4.92242807100747    4.46854404270558
C         1.46699237412655    1.37369818296871    2.95356494830779
C         0.69679525241173    1.22668679584120    4.26762425100223
C         1.54760596978815    0.50768810442403    5.30965362082265
C         1.94047288647954   -0.87619120257988    4.80530417051957
C         2.67528967316257   -0.75602422239243    3.47547008281365
C         1.82406614123508   -0.02166338797737    2.43875372034636
C         1.31827020393691    2.05703061267645    0.12756148495586
C         0.65734236784957    2.77523722786144   -1.04658964447890
C         1.28256675113399    2.32779132755884   -2.36493810173784
C         2.77949988249813    2.61773106370371   -2.37121064451107
C         3.45437227048681    1.93107809147464   -1.18887418896521
C         2.81334310300595    2.37290621843394    0.12385089777875
H        -0.29800476738314    4.92245434556564    0.93523873686546
H         1.62498347821130    4.92234585194192    1.20012844818936
H         2.10506571713202    4.92234269504622    2.94594385727335
H         0.46514244642090    3.96975234126576    3.73597723246706
H        -3.78531358959754    3.63682161353485    2.07360610671333
H        -2.54139120736201    3.60312239566845    0.81059717358293
H        -1.90328804205294    2.29944535635906    3.46246801259906
H        -3.03885304501564    1.45393522357213    2.40500864642623
H        -1.34616692499044    1.64302112509174    0.53183977376921
H        -0.88688021266422    0.57063753426772    1.85774835723596
H        -0.78932972854626    4.92247242079634    5.41226663891785
H        -1.83796902907816    4.92238986855577    7.62982931292136
H        -4.30211308012943    4.92231598448588    7.83560427870101
H        -5.69704357087081    4.92233062182168    5.79986376171141
H        -4.66575463432944    4.92243011369916    3.59411757635966
H         2.39059026713648    1.93269592685572    3.16456948566486
H         0.41672721887751    2.21299848217355    4.64637374657849
H        -0.21853568737503    0.65255432085137    4.10156646296498
H         2.44719555983040    1.09401903532961    5.50834254192084
H         0.98914410055633    0.42167066200676    6.24454708663090
H         2.57500137853391   -1.37870148472428    5.53831514022541
H         1.04113287126079   -1.48294693966392    4.67071289493958
H         3.60704850945730   -0.20593266893094    3.62665507420603
H         2.93059531233047   -1.74927148416875    3.09805807217474
H         0.91426227035177   -0.59952899092861    2.25555595634115
H         2.38589697292681    0.02577014947253    1.50666589833066
H         1.15748463575222    0.97661770711574    0.00717797166788
H        -0.41827398419533    2.58204292513785   -1.07209481923615
H         0.79804993221722    3.85052163359666   -0.92960640438952
H         1.11930935448558    1.25495154855442   -2.50023092279094
H         0.79817240135564    2.84633633828987   -3.19595549931989
H         3.22341746402321    2.27611889563017   -3.30894749950643
H         2.93820840507595    3.69627367961385   -2.29911654056723
H         3.35738979608074    0.84689518175692   -1.29593842609288
H         4.51974966329757    2.17084975785286   -1.17626151190132
H         2.94179864328357    3.45034233557583    0.25252234903227
H         3.31596948055128    1.88847727248325    0.96221639870598
P         0.55621244082402    7.33576681031445    1.77128135257077
H         0.46517925827710    5.87528825054992    3.73644446174233
C        -2.71244233645000    6.32240537905595    1.88966032142591
C        -1.06618367810552    8.22930618003119    1.58847948232820
C         1.46704198399690    8.47133953226673    2.95354511651282
C         1.31826133959473    7.78805470362901    0.12745009763697
C        -2.21619052746795    7.66761624501590    2.41928968209013
H        -3.78527387630617    6.20818275257009    2.07371882957508
H        -2.54141273946055    6.24190236872775    0.81067138914744
H        -1.34624128217396    8.20205893861642    0.53184710687100
H        -0.88693471305940    9.27444869146242    1.85776148934796
C         0.69684432091519    8.61834901572584    4.26760859047615
C         1.82412170340405    9.86668980805163    2.43871179368768
H         2.39063883021043    7.91232253922455    3.16452697080440
C         0.65727281815285    7.06980919578877   -1.04663688351520
C         2.81331621428770    7.47211163573375    0.12375499916336
H         1.15748352046319    8.86846616971241    0.00708661554475
H        -1.90326931889611    7.54561780735627    3.46251621483909
H        -3.03887118209466    8.39108016873848    2.40506621219307
C         1.54768410057302    9.33732204744380    5.30963081244104
H         0.41676685090834    7.63203342020605    4.64634984724882
H        -0.21848104700152    9.19249874292169    4.10156688306811
C         2.67537542411165   10.60100201805115    3.47543714953752
H         0.91432892456624   10.44458387061189    2.25554337325217
H         2.38593383279009    9.81925488490288    1.50661081865929
C         1.28246591759937    7.51722266668677   -2.36500520874927
H        -0.41833707599516    7.26303476931907   -1.07210923825342
H         0.79795253498029    5.99452204868170   -0.92963449842043
C         3.45433446172023    7.91389909582699   -1.18898321651788
H         2.94174934555861    6.39467364026415    0.25244903980907
H         3.31596220600743    7.95655046795741    0.96210322375313
C         1.94058061109267   10.72119413387445    4.80528209222949
H         2.44726012717562    8.75096724821374    5.50831584412499
H         0.98922638494205    9.42335799694786    6.24452442274082
H         3.60712180750568   10.05088388228598    3.62660652115375
H         2.93070805666117   11.59424370807753    3.09803051588676
C         2.77939301886133    7.22725038033093   -2.37128338454876
H         1.11923414883100    8.59006702014369   -2.50029053217776
H         0.79802589366461    6.99868247383614   -3.19599970942371
H         3.35736670002486    8.99808211665846   -1.29605479194852
H         4.51970683892082    7.67410243859792   -1.17637858439655
H         2.57512905736418   11.22368182049050    5.53829208189042
H         1.04125798458971   11.32797861547854    4.67070045587075
H         3.22329526095857    7.56883945612887   -3.30903430443345
H         2.93807492437755    6.14870442292195   -2.29918220351133

