76
CSD_code = JEFXIB | q = 0 | S = 0 | Stoichiometry = C28H44P2RuSi | MND = 8
Ru        0.56654569985184    1.48408010282758    4.56381859701035
Si       -1.58608144218190    0.75656878219137    3.84856951132306
P         0.16378540787837    0.46490063821613    6.56193694478060
P        -0.27235516066088    3.51225912088564    5.20980212208335
C         2.72596101803038    2.10538532817042    4.17339185520596
C         2.72633791506338    0.72926064525009    4.51343139234653
C         1.92711336073617    0.02041694552090    3.54738993380515
C         1.52501060347219    0.96592681129694    2.54834904854742
C         1.97628319801483    2.25589082568876    2.94956378502121
C         3.64570469210693    3.13422565217185    4.76511578720337
C         3.69767484673054    0.08642076480128    5.45872999077704
C         1.92628851384204   -1.46904357275586    3.34567659087232
C         1.05602261871620    0.64135278714742    1.16175209279618
C         2.09250817564245    3.40595206057395    1.99077754819889
C         0.29066842655817   -1.36994357175342    6.56745007979968
C         1.28018965214156    0.80886217947272    7.99729806732925
C        -1.43916989071424    0.63412092609687    7.44873836346405
C         0.21518477420696    4.11613295795376    6.88848563031226
C        -2.07841888442546    3.84447771204859    5.31236419877009
C         0.21663883112411    5.04726619804815    4.30903095567711
C        -3.21312782537615    0.95051455128600    1.45803870147909
C        -3.66566554489792    1.53245972208167    0.28707662359998
C        -3.13230936541516    2.73562868930586   -0.14488045642129
C        -2.14773434568965    3.35296136378752    0.60748619174503
C        -1.70481625464267    2.75607232333852    1.77412362966028
C        -2.21947541330433    1.54826693196047    2.22161765276984
C        -1.54081246455827   -1.68777635823198    2.28904500816680
C        -1.71005517302618   -3.04081003608955    2.05260586969457
C        -2.20796439962354   -3.86133189196056    3.05013357243692
C        -2.55235041206614   -3.30845298357369    4.27179950598476
C        -2.37860572235518   -1.95343522782180    4.49172502616468
C        -1.85714359286803   -1.11388619849255    3.51422536022699
H        -2.85973336062725    0.96793389192527    4.65403763553578
H         3.31076461445294    4.14569075919241    4.54344740779823
H         3.71756064531582    3.03232022990798    5.84774261558591
H         4.64924725254387    3.01429288708688    4.34750764498901
H         4.56736534622730   -0.24906677969646    4.88661529395099
H         3.28038470085021   -0.78407771657157    5.96206258578176
H         4.04901540109585    0.79030943518158    6.21122617604064
H         0.93887017504838   -1.83217395005860    3.06122454959019
H         2.23295685504805   -1.99154663905890    4.24884894648440
H         2.62939123128845   -1.73184098667063    2.55061107322857
H         0.86244350164489   -0.42270615552848    1.05977206434062
H         0.15450265396337    1.18988679656318    0.89091422210213
H         1.84079731320552    0.91548874743588    0.45140043780035
H         1.18135417783289    3.53593232489690    1.40950749445816
H         2.90404707753161    3.19214317824059    1.28854248354929
H         2.32776018763774    4.34105072870796    2.49255124328895
H        -0.29769248984933   -1.76886514461533    5.74314241592271
H        -0.07448876932189   -1.77436699066502    7.51141683400006
H         1.32899023007982   -1.66514815886993    6.43310745802969
H         1.13597961567638    1.82881875057605    8.34528212219941
H         1.06269498395456    0.11516411632739    8.80971506262560
H         2.31682563803724    0.68997064775426    7.69421859543227
H        -1.39697928523079    0.11086905275588    8.40417733030871
H        -2.22879055575515    0.21620500380938    6.83074954457074
H        -1.65564875671221    1.68692574430651    7.61933645993718
H        -0.24160040615423    3.48554010248347    7.64782854590210
H        -0.10319835040005    5.14783092828047    7.03703378523734
H         1.29886288506513    4.05477479190748    6.98275568718405
H        -2.50390142735295    3.77439450935855    4.31353432394643
H        -2.54918855647342    3.08668782602402    5.93347099514888
H        -2.26219395288863    4.83483777097127    5.72883824504250
H        -0.03354333345814    4.97537595629014    3.25418565756865
H        -0.30568336318126    5.90139978339771    4.74032971264937
H         1.28913236737584    5.19921117460162    4.41344032211608
H        -3.63627101882368    0.01384447247243    1.78916277271904
H        -4.43878393688434    1.04818504702288   -0.29380061635015
H        -3.48298314056490    3.19032237916368   -1.06091932538190
H        -1.72761995193520    4.29564940534869    0.28033588214101
H        -0.93317674944150    3.22873445455102    2.36948719731401
H        -1.17980039833309   -1.05444381754145    1.49314620164575
H        -1.45632136203326   -3.45737552783581    1.08679442514494
H        -2.33910932552122   -4.91956896111621    2.87269454130236
H        -2.96148971681181   -3.93595071726045    5.05235568111703
H        -2.67328048845332   -1.53248353054198    5.44289908719504

