76
CSD_code = JEFXAW | q = 0 | S = 0 | Stoichiometry = C33H32BN4OPRuS2Se | MND = 6
Ru        7.43953228223350    5.56997568245279    6.91331984586672
B         6.44197553893957    2.89004970301168    6.40613918038285
Se        7.77201152087740    8.03868538035933    6.66683286954359
S         8.63583961376324    4.96650678398649    4.83453997182416
S         5.40976479536749    5.83506723587997    5.46298489331949
P         6.26076580466043    5.92555323166927    8.85436066661505
N         8.16796708497143    2.99099669313199    3.13211578528837
N         7.08387981490187    2.69349976860038    5.01875038558221
N         4.96574925909583    3.25092672495091    6.17329318275327
N         3.20989971914752    4.30647268369926    5.38021654864615
O        10.12109409036895    5.27061414550638    8.18860928192020
C         9.05953242713487    5.39227986672407    7.76431719257742
C         8.30441562347302    8.05421546562037    4.81848063689611
C         7.34981769908140    8.13405392103432    3.81408111501716
C         7.74086387512509    8.06492505727718    2.48990320023519
C         9.08060201575362    7.93089752242235    2.16428162974614
C        10.03381458867785    7.87473776827186    3.16816025034283
C         9.65054086643433    7.93905002712470    4.49416516036641
C         7.91526237602592    3.51926679684413    4.35516794558250
C         7.48543604525844    1.80626169496311    3.02967281081121
C         6.81836300994743    1.63038860863663    4.19277478269237
C         9.01895193814954    3.59917949389675    2.15130828038616
C         4.52642274153640    4.42476134367526    5.67992132455816
C         3.90034166560911    2.39008924750569    6.19662447998849
C         2.81488659184351    3.03289230849958    5.71034561400004
C         2.39795533368254    5.32394831678498    4.78065917433549
C         6.57267771775424    7.43388731590457    9.83068556209018
C         5.58006032522911    8.16218980751771   10.47734881407097
C         5.92358042806767    9.26005047988701   11.24596711213875
C         7.25000585425753    9.63411099428107   11.37998116630946
C         8.24213069888449    8.90571379577440   10.74459491149972
C         7.90598971982223    7.80854350067773    9.97482621710778
C         6.46692764501558    4.69113680922300   10.18515931332105
C         7.37917622531614    3.65170153773572   10.06003782006122
C         7.54751405541985    2.74602522186641   11.09375775735527
C         6.80829389434666    2.87479589696511   12.25685596048409
C         5.90022730546285    3.91446044494104   12.38898538188326
C         5.73141393223450    4.82169121333809   11.36123578815725
C         4.46089858091668    5.94610318531434    8.61023799428076
C         3.66319746083432    4.83602651185830    8.86352310286405
C         2.30901607387986    4.88285337953883    8.57954949321082
C         1.75174911699180    6.02756596689549    8.03416568289842
C         2.55304257883422    7.12189877509005    7.74187306172441
C         3.90623269140402    7.07944408005388    8.01561536262937
H         7.01860195742465    3.86749216604063    6.95696237036853
H         6.53007499973407    1.90937559208748    7.06446327527060
H         6.30533458966953    8.22655936136815    4.07736147173471
H         6.99536736727704    8.11142906820298    1.70735085688321
H         9.38216422370595    7.87077569407324    1.12731191177166
H        11.07995612766818    7.77188953157375    2.91586460809831
H        10.38265094727885    7.87832137725784    5.28717486966807
H         7.52931533708576    1.19980474620703    2.14896120689656
H         6.17264031009040    0.83719190558747    4.50731360699870
H         8.83343544728124    3.14509402733311    1.18034193437219
H         8.81258751892504    4.67076073540413    2.11171889424500
H        10.06879799083226    3.46952178618497    2.42360718246025
H         4.00630784311495    1.39111587931332    6.56526782389784
H         1.80645092733756    2.70264819702411    5.57252491419543
H         2.91427345565484    6.27761855431104    4.88590764242986
H         1.43201158863331    5.37203013755415    5.28181143522250
H         2.24484327323476    5.11712809787455    3.71842284827113
H         4.53972394381397    7.88528306065248   10.37494965109147
H         5.14855486039821    9.82819465515154   11.74034416063293
H         7.50906712274324   10.49635875121325   11.97659230148527
H         9.27704616752554    9.19615501698428   10.84325109899109
H         8.67228954379895    7.23604354403704    9.46669265637554
H         7.95665332088606    3.55437117137422    9.14864721021114
H         8.25956285320362    1.94053244415952   10.99063694688508
H         6.94071514767557    2.16871822821325   13.06339489614599
H         5.32608823524113    4.01879944370011   13.29819630761129
H         5.02897472958439    5.63721051962009   11.46460206947349
H         4.10266911619051    3.94125638600004    9.28446096673050
H         1.68839611458975    4.02230230830127    8.78612043754509
H         0.69093675048522    6.06537723473850    7.82943939290669
H         2.12060804051965    8.00542359731319    7.29514329915444
H         4.55317952200123    7.91342239168742    7.76913504069700

