115
CSD_code = JEGGUY | q = 0 | S = 0 | Stoichiometry = C59H48O4OsP2S | MND = 6
Os        0.08763876524752    1.49221241991151    4.16116802705056
P        -1.16928468564192   -0.36740276680083    4.83482840087424
P         1.69302444475319    3.10263993729352    3.61784686821494
S        -1.97687510321012    1.81958499029346    1.41062271313570
O         1.40709023865721   -0.06780142244956    3.02499190068028
O         3.19765632099459   -1.35218888521673    3.43784128999180
O         3.43160313655010    0.31295538513194    7.82108927042783
O         1.66775068004047    0.50570280104713    9.18601324874628
C        -0.76929455682375    2.89415865538218    5.43390114482246
C        -0.40115294236322    3.05413108319892    6.74595887908473
C         0.53576243300103    2.24818454830783    7.46164871943656
H         0.58788843812453    2.45929931596312    8.52353299123141
C         1.39349499246050    1.28925705434594    6.99454252553348
C         1.44828684357175    0.91046297197752    5.60336070298469
C         2.39026207402011    0.01244165141230    5.16276522147333
H         3.17087237978974   -0.42408591990230    5.76966292617865
C         2.29005312491411   -0.43550652080861    3.81827294323407
C        -1.08577800101862    1.78752515988525    2.69551314601548
C         3.05193413944340   -1.86213466848098    2.12518616717823
H         3.85671277162501   -2.58066900432499    1.98972558256090
H         3.13055694831278   -1.05698686006362    1.39097949917281
H         2.08032254047676   -2.35148940247643    2.00976283929856
C         2.28495921804848    0.66163735932450    7.99124873879265
C         2.45161618623158   -0.08427132062460   10.20651159205230
H         1.80259142483971   -0.18135559064322   11.07320808183704
H         3.31177524584379    0.54713198695081   10.44203808210686
H         2.81544227725916   -1.06337059052450    9.88673655663692
C        -1.71838202420050    3.87308975997816    4.87522886804815
C        -2.91987439258816    3.47653054331684    4.28258337728990
H        -3.17873354944349    2.42749111169073    4.26468021801310
C        -3.78209405411675    4.40849891395210    3.73807770414590
H        -4.70866170294597    4.07955725271373    3.29004260478173
C        -3.46174289582253    5.75610599686376    3.75917973711007
H        -4.13336482837757    6.48180986855777    3.32437145104714
C        -2.27684952271510    6.16581645971267    4.34726888925231
H        -2.01971295621009    7.21512012383471    4.37257322454334
C        -1.42171932065585    5.23836145532448    4.90903143250551
H        -0.50391353928490    5.56326497344511    5.37458804321556
C        -1.00364695336920    4.12519174075266    7.58497046321328
C        -2.37998024468509    4.29398513819116    7.69925722641792
H        -3.04456886310810    3.64168980707767    7.15379982120368
C        -2.90231203430833    5.29198661325515    8.50077053510386
H        -3.97370961806569    5.40871718799776    8.58031781181658
C        -2.06064420164541    6.14048527566263    9.19978045521713
H        -2.47054569372318    6.92183533597943    9.82301677249548
C        -0.68945429119406    5.98089954347170    9.09423063984090
H        -0.02473267905884    6.64052288613027    9.63402105143820
C        -0.16595572518656    4.97912432173278    8.29830662949753
H         0.90571149286770    4.86508945584117    8.20841422445194
C         3.04819792972330    2.40624090893669    2.60572935999027
C         2.64023593153345    1.93160494094797    1.35905363047615
H         1.59123062096316    1.99043193114899    1.09376570070156
C         3.55783790064017    1.38427846877375    0.48508170918375
H         3.23488677002713    1.02054447746523   -0.48027717486731
C         4.89411177017403    1.29895210444237    0.84953358792937
H         5.61320581884342    0.86314429714767    0.17126011795971
C         5.30329053764059    1.77216054115435    2.08324188621144
H         6.34345914048451    1.70977148076868    2.36829130542761
C         4.38697025046252    2.32918048713370    2.96141832707503
H         4.72559927249942    2.70832312595399    3.91397845413640
C         2.51305201596582    3.98302236759246    4.99462568891990
C         3.34910090696338    3.30646533918047    5.88097525583490
H         3.56484297293536    2.25841151641704    5.74090937266726
C         3.90344227197407    3.96475290472870    6.96390312532516
H         4.54913888523325    3.42138741056343    7.63809166050122
C         3.62221257901839    5.30173138264046    7.18776875242408
H         4.04912771782224    5.81229203586036    8.03879092888137
C         2.78641411075984    5.98039570883479    6.31633319340799
H         2.55695950463163    7.02245714164556    6.48646330581124
C         2.23554508222812    5.32761648284179    5.22868732796687
H         1.59001222770323    5.86869992355133    4.55243178602764
C         1.32512359436079    4.50934978537290    2.49888521517784
C         2.37813511192761    5.29681825686915    2.03506573175369
H         3.39008254260705    5.07937861703868    2.35115580100351
C         2.13015581482427    6.35269612365468    1.18023783619263
H         2.94986410101119    6.95953244025004    0.82368300937169
C         0.83225295913447    6.63337257840841    0.77894253975375
H         0.64261246235015    7.46003335882820    0.11011018866864
C        -0.21509331550215    5.85226705219354    1.23402864951369
H        -1.22797222976163    6.06373460429366    0.92554146156113
C         0.03054947833980    4.79161801649938    2.08986418922786
H        -0.78086828290777    4.17594512223108    2.44658766023000
C        -0.50199478324788   -1.32872732677364    6.24620179920453
C        -0.90235921862181   -1.15672232749890    7.56498034143130
H        -1.71142714441269   -0.48619827059092    7.80788058757079
C        -0.27667390997790   -1.85799612528064    8.58137107491605
H        -0.60265530690719   -1.71812382257907    9.60145846716597
C         0.76330107926675   -2.72530323086860    8.29734793804665
H         1.25392994238153   -3.26563264411366    9.09399076651188
C         1.16923179803378   -2.90370991641884    6.98494364873968
H         1.98037814924180   -3.57829987931449    6.75287460274244
C         0.54039380127337   -2.21298354362272    5.96799899593679
H         0.85264660077080   -2.36804717889543    4.94404042235946
C        -1.35984181865614   -1.74270423318625    3.64217373659905
C        -1.02608283973080   -1.59215543312723    2.30290624617934
H        -0.63572398970980   -0.64818130159232    1.95321058910699
C        -1.17397777599662   -2.65336486736651    1.42453703214305
H        -0.90656769211245   -2.52905647969821    0.38519650521241
C        -1.66153347548282   -3.86746924071114    1.87511598328437
H        -1.77433801201503   -4.69508884312227    1.19015041354110
C        -2.00655150983971   -4.02112772723662    3.20980382261091
H        -2.39218886429831   -4.96617619255934    3.56391313201268
C        -1.85742115595762   -2.96725858619040    4.08999860733342
H        -2.12679251042455   -3.08720819069093    5.13119618909179
C        -2.90953319179734   -0.07353653103339    5.31511380015157
C        -3.98420421805252   -0.64098010866908    4.63919556639997
H        -3.81454841547041   -1.29849241439503    3.79942576472308
C        -5.28129586593924   -0.35715182411734    5.03155651004740
H        -6.10858775071134   -0.80184350359231    4.49791418303926
C        -5.52056536704108    0.49135497657716    6.09842888622005
H        -6.53386044165967    0.70348879341659    6.40570195260814
C        -4.45545342364991    1.08317497776515    6.75810675475825
H        -4.63760454269530    1.76153399621937    7.57913283264298
C        -3.15912829550125    0.81608045424822    6.35948064443195
H        -2.32770804297004    1.32095947807192    6.83092337936410

