31
CSD_code = JEGKOW | q = 0 | S = 0 | Stoichiometry = C8H16IN3OPRh | MND = 4
C         7.44149639116590    4.19040982495102    7.97069200844997
C        10.00988240603676    6.57854145253140    7.83589123619808
H         9.24693103930963    6.98265682080731    7.17116033102179
H        10.44898210247468    5.70020015911856    7.36387367846241
H        10.78246434135938    7.32846532853061    8.00704049791518
C         8.80269178737652    7.71151438077500   10.20671534338826
H         9.57226344887903    8.46192334372542    9.99186204127957
H         7.84599557952014    8.07303960016485    9.81254610227527
C        10.68407083178449    5.70120408399992   10.50787473130407
H        11.02507857102774    4.67635959703320   10.32151422264486
H        11.51518137973568    6.38597193249520   10.30333821306283
C         9.95687543571576    7.18864002323803   12.24283370637649
H         9.86274567552333    7.26358739204670   13.33136183061900
H        10.74081452655775    7.87190143266553   11.90885486000584
C         7.65640206319370    6.68980259388328   12.10492349742934
H         6.71831300849104    6.93855639650519   11.59342372776012
H         7.53332977389353    6.89249331801553   13.18249698826762
C         9.30635874281035    4.92557397091126   12.36848487115199
H         9.33771058062440    4.96261199101266   13.47076949862476
H         9.55399707393526    3.90661336517424   12.04608402911439
C         7.00731795368164    4.51743451397692   12.82743724447326
H         7.17337549226350    3.44401790125060   12.75295872883980
H         5.97282279800516    4.72925109425292   12.56231370774633
H         7.17349569898345    4.82720895477755   13.86884130513847
N        10.32590110325847    5.82805424265177   11.90654273977509
N         8.69367369296058    7.57304263409718   11.64529719132230
N         7.91435815275773    5.23064653566833   11.92337144498666
O         7.38357653433373    3.96276798180643    6.84810951863459
P         9.22481805479692    6.07908405486687    9.41015932259701
Rh        7.58468025325982    4.59619508786264    9.73455608513625
I         5.68319550628416    2.88222999120394   10.11977129599785

