57
CSD_code = JEGLUD | q = 0 | S = 0 | Stoichiometry = C24H29ClN2Ru | MND = 9
Ru        7.84330148861525    2.73043320997915    5.95174402548907
Cl        5.75403842235082    2.59880608962920    4.85159016122969
N         6.33670781433471    1.21269317156364    7.89382719355135
N         6.14881914627488    3.26378052922203    8.52406935507511
C         8.22854786349895    4.69078493523428    4.75613240826853
C         8.62298513578371    4.91587955223020    6.07282550018391
H         8.29136921984576    5.80329065722776    6.59903179806124
C         9.47293537353882    3.98715991074479    6.73297393437959
H         9.80556296736394    4.21802082143785    7.73903851738133
C        10.05405165971332    2.89603122619968    6.03484690979470
C         9.69822427792874    2.72047787026324    4.66909335680161
H        10.17928379771981    1.93870093687172    4.08970887490873
C         8.76908088594245    3.56576076138584    4.06038045449697
H         8.51631924056108    3.42910370142815    3.01345893308387
C         7.28183641389479    5.61136291372538    4.04858473894325
H         7.71029651504389    5.95597272633563    3.10710725114292
H         7.03959066228040    6.47161177860131    4.66934240694671
H         6.35780186994133    5.07387005105487    3.82388869484987
C        11.12492935407316    2.03592949620572    6.66624768910632
H        11.29151895752172    1.17030277770962    6.01492094624745
C        10.70010633835070    1.51496539210988    8.04040531608682
H        11.40135258139468    0.76016523082718    8.38820752851770
H         9.70620176035743    1.07095164674821    7.97261806679682
H        10.67758603588669    2.31831712581489    8.77297629859980
C        12.43360405286058    2.82768612021132    6.76057855419889
H        13.22052948379443    2.20412235699152    7.17839655795168
H        12.30841978362597    3.69930794649704    7.39997596101322
H        12.74818764070240    3.16717702813771    5.77556498370241
C         7.64984178564342    0.69839056150092    6.09975533449174
H         8.08994191337473   -0.00096570920150    5.38938091722685
C         6.85053701909314    0.21756677882947    7.05431008377622
H         6.56605406003394   -0.80399103525708    7.26407720785846
C         5.48201239874387    1.21408731719849    8.95717569604356
H         5.02309479424642    0.32563873713908    9.34013928448715
C         5.36476533644909    2.50589531631657    9.35723426727277
H         4.79945059989410    2.94242461888013   10.15506142725063
C         6.75697712825910    2.46942680133276    7.61669455550495
C         6.37535998894679    4.65949874139628    8.63768374508200
C         5.59588247718064    5.54945389636325    7.89968681567645
C         5.88008235028664    6.90552126287342    7.99916079644231
H         5.28827505502256    7.60658287689816    7.42770958755182
C         6.90202678956855    7.37773474080451    8.80874759723913
C         7.65040166759543    6.46652445451818    9.54425932255904
H         8.44447122441413    6.82691319482886   10.18315363093066
C         7.40127072695967    5.10533359578046    9.47183596335283
C         4.49149000586784    5.04469559569084    7.03189393704716
H         4.87605441124295    4.34038695068237    6.29053352738027
H         3.99897347236516    5.86377999298059    6.51566293790970
H         3.75225611798023    4.51073769910965    7.62778139274205
C         7.19984348433028    8.84351807435447    8.90706949671737
H         6.59092414092177    9.41351065712657    8.21022133284038
H         8.25032922639219    9.03612350418195    8.69308764330028
H         6.99656106374633    9.20107748180219    9.91604586145477
C         8.20050849594197    4.12501398307681   10.27718125131593
H         8.45237529415938    3.24909295336941    9.68059707250220
H         7.62121181128856    3.78483293356299   11.13599009137964
H         9.11443841684629    4.58432805946625   10.64593280585753

