40
CSD_code = JEGPEQ | q = 0 | S = 0 | Stoichiometry = C15H21ClCuNS | MND = 4
Cu        0.64601565612821   13.29086457080749   -0.08607469255415
Cl       -0.21727784418788   13.44173936075154    1.91219462203665
S        -1.57910273748903   12.03904808156428   -4.00802460262192
C        -0.58494717724707   12.36611129721170   -1.25329490163490
C         0.42864108539282   12.67573495119515   -1.91052303729175
C         1.07446971318167   12.69331906968877   -3.23541162274697
C         2.51743372252105   12.19001776663841   -3.16474729328330
H         2.95100554459066   12.14643177555211   -4.16167185979504
H         2.55689223310534   11.19589765499330   -2.72392974997597
H         3.11391524793830   12.86248723459514   -2.55161034766423
C         1.02822139163030   14.11202071582057   -3.80731833966230
H         1.49840904720259   14.13587389022361   -4.78817698571343
H         1.55197320186679   14.80185804175806   -3.14927156970551
H        -0.00466632347833   14.43790217686836   -3.90780676231671
C         0.22474551534039   11.73895969397487   -4.09616416668968
H         0.38890801145604   10.70274993681897   -3.80030622971891
H         0.47497868224272   11.85520760424572   -5.15058682882280
C        -2.10936778451429   11.07511957142382   -2.54474591177810
H        -3.16128869752250   10.85568178158629   -2.72606511433459
H        -1.54154749570955   10.14434168613609   -2.55849478936496
C        -1.94131083541502   11.80302616618190   -1.19752631329441
C        -2.95199224453254   12.94357389794617   -1.06060977342137
H        -2.88083849396194   13.61506760860722   -1.91420093462210
H        -2.74958011739095   13.50389631561935   -0.15093915367571
H        -3.96248236125373   12.54389909791198   -1.01102147382878
C        -2.08832086831649   10.81955770125420   -0.03611603250557
H        -3.09424472068391   10.40636991024333   -0.01472964579193
H        -1.89820139681115   11.34034370397502    0.89989081618457
H        -1.37443181264993   10.00254994275904   -0.12678889792426
N         2.29211188452611   14.23839915357861    0.29545355193173
C         3.22272089797499   13.61987835592805    1.02050946535872
H         3.19791705123362   12.53950515719135    1.00543336500219
C         4.16782076930425   14.30295772815716    1.76271835106656
H         4.89675694900398   13.75732747166196    2.34025435374799
C         4.14892478071229   15.68920306427457    1.75652501015800
H         4.86566345810149   16.25391480258856    2.33312582562032
C         3.18587182260906   16.33322146078261    0.99520258837890
H         3.13088133522301   17.40948903017707    0.95862467884733
C         2.27886447678264   15.57046725917243    0.28349031188250
H         1.50765843310475   16.03438531013943   -0.31546590947519

