60
CSD_code = JEGPIX | q = 0 | S = 0 | Stoichiometry = C30H22N6OPt | MND = 4
Pt       -4.21754480055172    1.59583080658141   14.65760656763399
O        -5.72526980348519    2.53183953915876   11.72797110868779
N        -4.09730430853947    2.69668908094869   16.42322305899974
N        -3.62241494309099    2.58177341517543   17.60979886740000
N        -3.90725423685380    3.68720624765730   18.27459788997893
N        -3.22624147579009   -0.19707786985687   15.05216033173556
N        -2.60066385779408   -0.77223898670909   16.01385242988848
N        -2.21507496751351   -1.96448347968742   15.59666669068146
C        -5.19345984681957    3.19228617547849   14.03476166872385
C        -5.75502745687800    3.41054998173095   12.77438198277433
C        -6.41847395825757    4.61060027947731   12.49782859759228
H        -6.84307526070961    4.74898354755606   11.51481025345321
C        -6.52772388789748    5.59536334007689   13.45961015172288
H        -7.04379807350883    6.51515612957271   13.22617257111981
C        -5.98032343641892    5.40983424080892   14.71855244747289
H        -6.06370519403696    6.17903231861218   15.47290593568155
C        -5.32328969565786    4.21838555293584   14.99267216113250
C        -4.47451073760560    0.76308519327801   12.88860063365710
C        -3.92480698474757   -0.52819617811035   12.75613896498721
C        -4.01672213636387   -1.25630373147453   11.57805004585997
H        -3.58414493826054   -2.24391935943270   11.50588543277877
C        -4.67245637944490   -0.69322535918802   10.49550941733818
H        -4.75415934740966   -1.24282735113941    9.56914963966714
C        -5.22450032174945    0.56885440067483   10.59189802357561
H        -5.73758300129929    1.01287342698002    9.75202819569241
C        -5.13193946737955    1.30169385824680   11.77979547522780
C        -4.71323112294282    3.90703790303828   16.27480226066896
C        -4.58304112470804    4.55549017946637   17.48426551685040
H        -4.90271571443639    5.51543547377026   17.82839821199245
C        -3.26066508148764   -1.01137902379575   13.95539544056036
C        -2.59772673907360   -2.16573094602134   14.31242559807316
H        -2.37475874105286   -3.06713105012256   13.78330739780272
C        -3.43975557531538    3.89027766811832   19.61959290277899
H        -3.24377364669714    2.89841492447925   20.03735679922522
H        -4.22243990257524    4.38222829200168   20.20303196834942
C        -2.17392304587514    4.71494065732612   19.61951860102281
C        -1.07737646400025    4.27454570303244   18.88825069690751
H        -1.14426778243152    3.34591507666840   18.33972219911022
C         0.08511152647640    5.02239793174588   18.85975259989888
H         0.93257586802493    4.67600034064933   18.28759891685149
C         0.16202585263099    6.21294551160422   19.56389128934584
H         1.07040937788051    6.79611072117409   19.54299858624025
C        -0.92798265022841    6.65506956440510   20.29291886810501
H        -0.87265427815634    7.58333045168411   20.84176527717491
C        -2.09536103398437    5.91065698802936   20.31704477627815
H        -2.94569054406477    6.26027325609068   20.88542846411183
C        -1.44334956258600   -2.84409105572598   16.43304317478566
H        -1.98168520299251   -3.78793019111993   16.56725158240856
H        -1.35198953080210   -2.34488479327283   17.40225448180776
C        -0.08388553368768   -3.09341817055621   15.82717977569237
C         0.72060036480237   -2.01345514355931   15.48354952060180
H         0.37177161810024   -1.00799662883470   15.67060523141221
C         1.95726049615743   -2.22261994206586   14.90179625078577
H         2.57430224226661   -1.37821022248926   14.63405261934371
C         2.40266097255415   -3.51238285158788   14.66307780944727
H         3.36803156081013   -3.67561084994858   14.20820998341300
C         1.60721343663109   -4.59122196795517   15.00727885549605
H         1.95005230260495   -5.59832669871097   14.82269787533930
C         0.36542506038756   -4.38262773882870   15.58306634961384
H        -0.25539888416484   -5.22741858803615   15.84614157504299

