70
CSD_code = JEGPUJ | q = 0 | S = 0 | Stoichiometry = C28H34N6OPt | MND = 4
Pt       11.51556854421452    3.21667797592458    5.45440099786130
O        10.42932444484217    3.79074960330583    2.25825191091358
N        13.41272581547385    3.58866375470375    6.22942704699850
N        14.04852658398073    3.47212770227793    7.33727669850101
N        15.27900817772827    3.91779441712380    7.15439108698404
N        10.41936232798236    2.42275419805912    7.03719192751610
N        10.57972009773439    2.12007416751819    8.27322027605936
N         9.43692892409615    1.63973571265078    8.73089454430115
C        12.32743814732224    3.94520930910049    3.81191070151286
C        13.67637667288636    4.33453027465452    3.94014705531856
C        14.39896014219042    4.86337516789525    2.87965718553677
H        15.43239283336845    5.15258822258538    3.00686239309922
C        13.77159851072087    5.01308319592603    1.65361304100041
H        14.31674606945265    5.42202082942278    0.81543883824556
C        12.45091949336739    4.64262820154885    1.49398799356271
H        11.95654550497552    4.75724786376717    0.54095244393517
C        11.72299437683575    4.11015607929353    2.56324897889660
C         9.81385658767847    2.96657269240321    4.49041709129853
C         8.76839053633770    2.42376300618761    5.26502800892500
C         7.50628816499945    2.18184747152252    4.74060192964834
H         6.72369193532081    1.76467907892212    5.35811247917690
C         7.26751038581647    2.48425741265770    3.40992766665080
H         6.29211580084218    2.30300679339677    2.98249898754943
C         8.26946688828474    3.01722362797211    2.62319973904456
H         8.08928848314470    3.25496901324723    1.58550163470149
C         9.54106891690932    3.26154476899976    3.15239468937858
C        14.22359807886506    4.12815841930956    5.27119591267502
C        15.44155085637210    4.34631149251837    5.87886559017628
H        16.36596692882150    4.74481548783097    5.51963240547905
C         9.14036978784184    2.14758801958097    6.64311839896584
C         8.49892393015012    1.63957768918193    7.75249485208022
H         7.50222296101587    1.28802677993729    7.91181275440195
C        16.21879672405043    3.97063923297655    8.23810355582869
H        17.21905119905913    3.75751180069913    7.85129698637854
H        15.93376655351842    3.19260638534300    8.94988938972762
C        16.19227478464877    5.33882136124331    8.92459016242362
H        15.17656084233461    5.53542652217752    9.27352913033467
H        16.45405928332231    6.11348462138191    8.19994405510130
C        17.15982177575829    5.38986401559286   10.10319305039724
H        18.17496976754475    5.19404419791781    9.74956789021743
H        16.90080767179494    4.60443848304814   10.81662763744913
C        17.12221959497259    6.74358051754413   10.80790925184774
H        17.38265369459336    7.53011631647206   10.09599274582215
H        16.10641256822290    6.93889568409076   11.15855127789023
C        18.08284865799991    6.80003928839401   11.99332282685450
H        19.09976388806554    6.60840087315607   11.64346797723751
H        17.82415216624143    6.01238932657617   12.70453618187133
C        18.03454339370936    8.15163433276876   12.69470171805410
H        18.72478007134474    8.17236392617039   13.53458587774280
H        17.03277461987479    8.35138631070674   13.06853775370138
H        18.30731668417643    8.94859045754121   12.00650124588153
C         9.28624186323225    1.26827827125865   10.10913218621046
H        10.27936491283925    1.00737672469204   10.48172592603668
H         8.63509869065960    0.39209398959316   10.17245532795806
C         8.70854699716634    2.42336147214854   10.93152311205620
H         7.72280443290975    2.68867431918731   10.54218032823085
H         9.35908795903809    3.29287976836363   10.81815549118634
C         8.59626005401946    2.05464223404590   12.40773175620536
H         7.94486100240876    1.18425558513499   12.51715229904948
H         9.58302914019591    1.77898664160267   12.78629127607826
C         8.04196938783665    3.20866225268842   13.23956993331640
H         7.05299044252403    3.48324983627341   12.86552299104678
H         8.69147942039661    4.07937667733347   13.12536475535563
C         7.93845782790728    2.84918542793183   14.71987105649953
H         7.28369911859855    1.98249611293953   14.83611878179171
H         8.92648733573001    2.56920648828287   15.09236573680419
C         7.39591883400083    4.00839890833477   15.54640671059260
H         7.32873591951382    3.73175964675135   16.59581608348778
H         6.40369316594931    4.29150598275375   15.20181951876262
H         8.04735264422444    4.87541757744371   15.46087275417639

