74
CSD_code = JEGPIV | q = 0 | S = 0 | Stoichiometry = C24H41MoN3O3P2 | MND = 6
Mo        3.00066240064226    3.30307894064737    4.24814423570957
P         4.29514997076612    3.84469979684081    2.33395905360683
P         2.16898392517410    2.01847870270815    6.06425193817237
O         1.51823539628483    5.96799956557134    4.66934653601573
O         4.77335639788502    5.01539064819617    6.09166517453016
O         0.51325780370018    2.60412845648296    2.57222064828156
N         3.94450322412629    1.39884739881044    3.85755413580939
N         5.02128843345787    2.34020620547983    2.03821321862672
H         5.64264043387955    2.20156132618479    1.25048899509230
N         2.69676050243773    0.48035097962303    5.57809782213715
H         2.50635132788684   -0.33847622617232    6.14381990416203
C         4.76195527792893    1.24203898990909    2.80710475149949
C         5.33461012665311    0.00860201529686    2.48502714601559
H         6.00133838195093   -0.07072768030637    1.64077969008615
C         5.02572947337136   -1.09329212551842    3.25846326441462
H         5.45707142945850   -2.05689962107768    3.03573352013887
C         4.14384728907202   -0.94683567306546    4.31155057040038
H         3.85963215632114   -1.78881104996981    4.92313570370694
C         3.61164590467329    0.31784467135897    4.57619206174234
C         5.88657827056930    4.87585974787194    2.47283771196593
C         5.45585788662281    6.27333495540476    2.91120041794259
H         6.32302943797638    6.87943216950998    3.17115576260875
H         4.79718207809436    6.21973904179591    3.77662601225672
H         4.91840279858618    6.77607075943895    2.10818963320013
C         6.80571252345835    4.98278693695341    1.25210722828975
H         7.78587804802531    5.31681611110954    1.59341134955123
H         6.45380337411189    5.70902828821276    0.52861441793477
H         6.94260818889873    4.02308559001467    0.75656699533258
C         6.70553489977789    4.17835161543083    3.56699359861156
H         7.36095854139156    4.89304295760337    4.06149943889859
H         7.32140492077668    3.38668540753971    3.14122960979767
H         6.06282244354225    3.72890228176978    4.32251772995214
C         3.43314251305019    4.18811176545649    0.67488524015893
C         2.33075933685091    5.19355338212338    1.01094467861532
H         1.78407779511408    5.47388812021609    0.11123480059753
H         2.75699953215082    6.09436774546134    1.45137085652505
H         1.62844810301078    4.77591651287383    1.72731314967257
C         2.82803473606637    2.85838537526322    0.21567384843229
H         1.99273869727351    3.04224161323915   -0.45782147231770
H         2.45859853624941    2.27718950946456    1.05865277410736
H         3.56529602118003    2.25575576146233   -0.31414111801196
C         4.25498243606770    4.74984016660960   -0.48386799440095
H         3.62562850012025    4.76397286564117   -1.37438815414206
H         5.12516400307867    4.13783982250310   -0.70674298100143
H         4.56709131220511    5.77200448527959   -0.29031978696861
C         3.01589744773330    2.07528267379299    7.76897655144028
C         2.72298609561281    3.44684988122661    8.37072118257861
H         3.30889597874462    3.60037761669439    9.27644620961310
H         1.66901029343744    3.53842287746496    8.62798761018082
H         2.96635890725175    4.23678848489017    7.66305776173724
C         4.50998787669555    1.92455840815701    7.45736089344336
H         5.10652873507771    2.30745184981659    8.28394940094197
H         4.78779812213595    2.47211266785660    6.55791946283307
H         4.76976109358130    0.87637351274757    7.30685069418002
C         2.67395814261071    0.97622198956768    8.78137605227266
H         3.48472776904346    0.91355048236045    9.50754095259259
H         2.58310904148890   -0.00211959861264    8.31144103133376
H         1.76553732511675    1.18835380116664    9.33317242211243
C         0.30541381659531    1.72853496856553    6.28921809405684
C        -0.31565651074174    3.10317833636536    6.03055429293092
H        -1.39041929957784    3.07675283917437    6.20624634167196
H        -0.14107973097597    3.42013199565756    5.00544121500625
H         0.12542626875068    3.85086782114047    6.69023412796894
C        -0.14705967550665    0.72963675996124    5.22176432929336
H        -1.21917781605718    0.82685346164758    5.05877010671798
H         0.05653739711263   -0.29484201284425    5.53109158263357
H         0.35453509955652    0.90466778086145    4.27386075528660
C        -0.19834260132043    1.22678933098491    7.64141446916772
H        -1.27884798974763    1.09425559752670    7.57588436500458
H        -0.00607979095084    1.94712501921249    8.43147944744565
H         0.23297670568074    0.26568548882369    7.90782704430228
C         2.06893640095903    4.97060916709105    4.51303277217062
C         4.24322433826822    4.25807812495988    5.40711366237479
C         1.49470176948877    2.73606236452724    3.15807505093874

