63
CSD_code = JEGPOB | q = 1 | S = 0 | Stoichiometry = C20H33IMoN3O3P2(1+) | MND = 7
Mo       -0.06242675434877    5.65624407617935    3.36376369308047
I        -1.75423301339981    5.00652099031520    5.51616468484726
P        -0.32805346022748    3.41182974425237    2.42486626387117
P         0.82119509161853    7.29587630052183    4.93513455803195
O         1.94917506496943    6.11624551487958    1.06879529311667
O        -0.70689046862343    8.16767724225143    1.65032556790661
O        -2.85871219111437    6.16588689957380    2.08651769010231
N         1.37260287969155    4.50113683246219    4.53514790864491
N         1.12789728909224    2.76335084191484    3.00912388112376
H         1.35395103593226    1.79821457947218    2.78833282534459
N         1.52597797830281    6.24289249606323    6.05761772865634
H         1.90756789569175    6.58992123230546    6.93124908464784
C         1.68695002637292    3.24147915387760    4.16954181217611
C         2.55053189657188    2.44329306600778    4.91654519876868
H         2.78706078714573    1.44790658188374    4.57924798407741
C         3.07209705864910    2.93979076828537    6.09673117943078
H         3.72966471165417    2.33511780724268    6.69943846276169
C         2.73015836262467    4.21562708387275    6.49860649360118
H         3.10257392689145    4.62973893001332    7.42059745138151
C         1.88574562194806    4.97584552892673    5.69033828073347
C        -0.24500389627303    3.09025758614953    0.59927831638521
H        -0.81895370841410    2.17453644419800    0.41288888883238
C        -0.93943545643357    4.23354295406580   -0.14072428607214
H        -1.01716543678595    3.99442781083282   -1.19935867611434
H        -0.37632755050498    5.16332704081200   -0.05145137668636
H        -1.94839269594457    4.39533897557162    0.23858958686697
C         1.18250099398148    2.88563285588063    0.09937098478972
H         1.17454063450507    2.83679880642757   -0.98745968430872
H         1.60868410708270    1.95526617570953    0.46807148540888
H         1.83353425992314    3.70627534292594    0.39087012904485
C        -1.60097892011128    2.20263780572709    3.04804729095109
H        -1.64064519208455    2.35348847665861    4.13554818142301
C        -2.96448620218106    2.55417217821265    2.46008742090625
H        -3.73095350007184    1.93455770253255    2.91984735476560
H        -2.99224483506977    2.38195388509503    1.38597524093997
H        -3.22144494697324    3.59410200704821    2.65896852165230
C        -1.22188948429119    0.74607784279860    2.78684508276801
H        -2.04304170604544    0.11161276068807    3.11335809907429
H        -0.34071352812456    0.44978992230431    3.35362574503813
H        -1.05153712593418    0.54216520415123    1.73141635752787
C         2.28555371928871    8.34599360423650    4.47155349935835
H         2.55278383484414    8.93182127487732    5.35968898360636
C         1.93681754907373    9.29301148719582    3.32866287433269
H         2.75688275336217    9.98800190009366    3.16013821623946
H         1.04441543100531    9.87574550628479    3.54891254214441
H         1.77105650561084    8.74302962169545    2.40341503140746
C         3.46902675465285    7.45224487697427    4.10498789508991
H         4.27419157139908    8.06290070902519    3.70261388157534
H         3.19507450181472    6.72049880906349    3.34262781598504
H         3.85785593241252    6.91863317661261    4.97116587008004
C        -0.27850336394775    8.32790411176193    6.01117966890675
H        -0.73114236859413    7.60219833039439    6.70155785355235
C        -1.38944742655776    8.95694468381499    5.17163534885396
H        -2.06700050867975    9.50914735139119    5.81900518126276
H        -1.97728501092497    8.19668028730389    4.65313634763969
H        -0.99164859799102    9.65115637356760    4.43300645011782
C         0.46314899179187    9.38156672723054    6.82831346512818
H        -0.22554078378022    9.81003068162015    7.55343450485726
H         0.82541349968218   10.19227143678571    6.19998187574154
H         1.29909246805352    8.95583951713068    7.38218356266475
C         1.25648439069468    5.88418385542569    1.95030696413356
C        -0.54200362884492    7.23128858544266    2.31438807670104
C        -1.79240576404717    6.02064964398000    2.50522338511145

