45
CSD_code = JEGQER | q = 0 | S = 0 | Stoichiometry = C14H27CuINS | MND = 4
I         9.61395929437421   13.59951111579515    2.35416529767997
Cu       12.08471549332689   13.89971673308058    2.54167839157509
S        15.39238504370699   10.67343891367376    1.77624955640380
N        12.31843983061722   15.68034210701521    3.53962818489816
H        13.31325567969151   15.85139169902277    3.69492849860159
C        11.65490878036348   15.61519400384949    4.84535815796560
H        10.59528914436553   15.41498820219967    4.67000025124573
H        11.73450654742202   16.58136714483065    5.36406960611367
C        12.24580168942655   14.51479723550091    5.71158423407494
H        12.19565692452504   13.55772770423903    5.19395719234585
H        11.68370154669515   14.43266910120575    6.63742545481228
H        13.28519181901068   14.72527348863822    5.95985927912683
C        11.78717041679578   16.76796548905699    2.71318077755569
H        11.87078226686986   17.72828120072953    3.24204314496885
H        10.72584118167127   16.56865776736262    2.54581904861798
C        12.50851311610489   16.85159990698394    1.37754128118457
H        12.05107786000675   17.61857628886114    0.75897613646972
H        12.43897712769707   15.89999596975673    0.85183382214208
H        13.55971718537142   17.10001533378966    1.51345675732630
C        13.03374684469156   12.42256019114284    1.71511685735857
C        13.87115701139432   13.20838114847626    2.19196913783290
C        15.30829031810980   13.43191789537791    2.44945978040987
C        15.61369519666144   13.19243506846699    3.92994421104872
H        16.67385161064994   13.34574940051900    4.12203577886833
H        15.35636446390364   12.17051664207068    4.20128601794934
H        15.04394953498513   13.87205288272663    4.55993595177403
C        15.76892938794835   14.82767804738738    2.02187725167307
H        16.85444624899515   14.89202707725432    2.06822551830651
H        15.35682448520292   15.58786334348077    2.68294584717159
H        15.45301086259406   15.04491060232576    1.00270532275565
C        16.03163253550649   12.37781737108055    1.58841071685444
H        17.08207375774757   12.31611484699974    1.87355856161660
H        15.96279628310429   12.63003265816990    0.52962354710790
C        14.02847333474853   10.60524530496077    0.55876577173203
H        14.36624135803154   11.14951412737042   -0.32424885345231
H        13.93125799946606    9.54853111220638    0.31053303423895
C        12.67927099951911   11.15604724977626    1.06262199924986
C        12.05923967170337   10.20494548865922    2.08812691305499
H        11.80992801497433    9.25844614772296    1.61385854844554
H        11.14968607510858   10.63430197667526    2.50071590312750
H        12.76053468797855   10.01581936475877    2.89923259492644
C        11.73790760803373   11.35308733669184   -0.12621428617037
H        11.59614426294171   10.40933855727921   -0.64818460169113
H        12.14337590730245   12.08141060256887   -0.82725428278649
H        10.76898059065485   11.70514615026020    0.21669768548883

