59
CSD_code = JEGSAP | q = 0 | S = 0 | Stoichiometry = C15H36Cl2MoNOP3 | MND = 7
Mo        1.05158196533018    3.64615981970740    0.72723337068367
Cl       -1.05480314957901    4.22980872908973    2.11281676857773
Cl        2.18290626065143    5.48180512916307    1.92750791860985
P         3.13684798039458    3.39677304665456   -0.39185421611743
C         2.95560486402091    3.11757497675062   -2.18817027410843
C         4.31845708075345    4.78309806695087   -0.35828234723569
C         4.25997520651465    2.00931395224225    0.01449962724482
P        -1.06113830576602    3.37338846064769   -0.33451908096356
C        -2.17283933734049    4.82406232424176   -0.52739001459519
C        -2.23015127393124    2.05751033238734    0.15574683831302
C        -0.90098543912936    2.92020527349301   -2.11638545988194
P         1.25713557263813    2.51118549048060    2.85840326595446
C        -0.02731257199101    1.26920147976399    3.23551611428472
C         1.25263573101819    3.51550748316304    4.37730627430471
C         2.75913128972207    1.50941006839004    3.16642597955532
C         0.87401754893499    1.84516168799399    0.08478660582037
O         0.81912943262167    0.73517771550907   -0.26609278458249
C         0.97457127410421    5.07698103153428   -0.65366080002734
N         0.97293858070159    6.04159370920310   -1.31726531598422
C         1.02749722681255    7.26469870806894   -2.01830136116167
C         1.93077067015307    8.22017876111940   -1.23178623865172
C        -0.39202281349532    7.83288371798863   -2.12092740324806
C         1.60052023741820    6.99704017149077   -3.41470075922831
H         2.95927908242392    7.86590035463730   -1.23475409776267
H         1.59831476293964    8.28275953119261   -0.19809828805475
H         1.90062707918743    9.21170657564782   -1.67616230276140
H        -0.79290340346222    8.02391475652195   -1.12818701782917
H        -1.04741035057721    7.13166733601781   -2.63337214008690
H        -0.37727601362165    8.76727041289230   -2.67601320647108
H         0.95738083035755    6.31419493055971   -3.96689169519907
H         2.59314356082836    6.55690488052277   -3.34099422894300
H         1.67369987914842    7.92972479876379   -3.96771063534777
H         3.93307730614030    3.04209357244383   -2.66619430447886
H         2.39128833932886    3.94086924310927   -2.62306216080564
H         2.40241266082466    2.19088135881312   -2.33683148507549
H         3.80169809351829    5.68371922406697   -0.68665953487114
H         5.17784901128089    4.57751108633968   -0.99853498325026
H         4.63792597163599    4.93363609113025    0.67303191652068
H         5.08621612974166    1.96901694860799   -0.69677486399005
H         3.69648059144867    1.07741295930848   -0.02483855721627
H         4.65373697197570    2.15200162028139    1.02001613893561
H        -3.01943970005438    4.71659799234324    0.14979924888846
H        -2.52682729664495    4.89816391748938   -1.55539993381038
H        -1.62737328396759    5.72717848166541   -0.25730482572254
H        -3.10531880115629    2.11245477554569   -0.49425202975286
H        -2.53410144242607    2.18597850663017    1.19289900224013
H        -1.74373200275390    1.09015475355754    0.02881741693946
H        -0.33861825286405    3.70098407309193   -2.62919847881160
H        -1.88361404188438    2.81716976742821   -2.57933930906828
H        -0.36343457469718    1.97891297647250   -2.21429598216131
H        -0.99919248949449    1.75863608302359    3.26894566735904
H         0.18164608722890    0.80241547214587    4.19894987474505
H        -0.03083028479099    0.51002103189518    2.45373722598888
H         1.32370566251726    2.86506649271311    5.25096874262327
H         0.33712022819648    4.10404357044073    4.41964236527445
H         2.10449441326685    4.19506060169035    4.34337677670926
H         2.84814082233296    0.74277114787312    2.39777861573014
H         2.70738828023397    1.03747669145856    4.14866577663817
H         3.62817814329317    2.16670784763789    3.12783458531456

