103
CSD_code = JEGZAW | q = 0 | S = 0 | Stoichiometry = C54H40FeN8 | MND = 6
Fe        9.72387086646894    2.91102556703202   10.48582415557012
N        11.32404501646933    2.36556695090329    9.40530399351560
N         8.52730178284877    1.94188530665929    9.20194034352617
N         9.92845724760779    1.25231090689962   11.56085532921993
N        10.34390830582676   -0.83836734422734   12.13831380235836
C        12.62832037261412    2.62602298694307    9.68987509387867
C        11.33158348884065    1.58468097272137    8.29037782871717
C         8.90595743217259    1.23005384048208    8.10533058565811
C         7.16920846763633    1.87627369459953    9.24142148183382
C        13.48676908409872    1.97801285848789    8.73805209646160
C        12.68040498209281    1.32994761169733    7.86698935861458
C         7.75384871811594    0.70036796721871    7.43013088525780
C         6.67439466398356    1.09427858250298    8.14283937634459
C        10.21250598666753    1.04677424311079    7.65710517928034
C        13.10114752436255    3.36707953732772   10.76875183426409
C        14.56364652801302    3.53444013264783   10.90927661303983
C        15.28898068697216    4.25978374564659    9.96900527291805
C        16.65709137334800    4.41291756100385   10.10214915038400
C        17.32080885114659    3.84027411423582   11.17426795771495
C        16.60788688209512    3.11454287782486   12.11398017851385
C        15.23932377025399    2.96386850352382   11.98386316745197
C        10.42674677584652    0.22875338029388    6.44413130874770
C        10.96207136106574    0.79788732939837    5.29232217665633
C        11.16314472456984    0.03356693291049    4.15767734849199
C        10.83585418802180   -1.31205882852376    4.15743383716754
C        10.30427488864735   -1.88860869794421    5.29875781491532
C        10.09999220928836   -1.12413307949786    6.43284527256971
C         9.85971674186572    1.14774160999289   12.92082078156360
C        10.11432077667342   -0.13475055072168   13.29366274541752
C        10.21675061200347    0.05146558524583   11.12049285743028
C        10.65912603413234   -2.18125292288830   11.98498554902833
C        10.78906966096721   -3.06059724508934   12.96784105476273
H        14.55930296723311    2.00583358047222    8.75214300705340
H        12.96269882378051    0.72239936566300    7.02860868496151
H         7.77643971939178    0.11629994968519    6.53024712426376
H         5.64084149180290    0.87762324359075    7.95302433392277
H        14.76887198724429    4.70856457493389    9.13473389890724
H        17.20872071500273    4.98142565902597    9.36693210732644
H        18.38967036675016    3.95876625453718   11.27696763321577
H        17.12131159059815    2.66355849386772   12.95129590572496
H        14.68178195495245    2.39427355225848   12.71387693408886
H        11.21465705932329    1.84875946724083    5.29153109082085
H        11.57597573956683    0.48916815384901    3.26896817459757
H        10.99396987252615   -1.90909947527329    3.27124655144437
H        10.04853555348095   -2.93865560633917    5.30484508314376
H         9.68565500555880   -1.57586345789415    7.32357473681203
H         9.63640830056360    1.99907803900183   13.53016002991872
H        10.14902526499460   -0.58720113402844   14.26202846360468
H        10.34333750309752   -0.20915792252737   10.08909168401737
H        10.80007821270787   -2.46402072696159   10.95062359164204
H        10.65747886539924   -2.80285216170194   14.00334424935349
H        11.04032949486595   -4.08256829285596   12.75437379954267
N         8.12372052789985    3.45632274603517   11.56648134472405
N        10.92045853929491    3.87998141123568   11.76987244343131
N         9.51920203392363    4.56972038019163    9.41077218582859
C         6.34659640743768    2.45492354459767   10.20297100951452
C        12.27854125752479    3.94569779176909   11.73031845793145
C         6.81943192324532    3.19595153583367   11.28186908930368
C         8.11617484404118    4.23731196867280   12.68133739612456
C        10.54179539220248    4.59196019209445   12.86638792267815
C         9.58820952317472    4.67432333934873    8.05083713937018
C         9.23115349236915    5.77060066162435    9.85113761455969
C         4.88410027088183    2.28753480790062   10.06248346925233
C        12.77335690343362    4.72769011472999   12.82889938643539
C         5.96097871767238    3.84395026475671   12.23370199764780
C         6.76735052223790    4.49204369443923   13.10473831478333
C         9.23523718611284    4.77528450618836   13.31457534383479
C        11.69390577813395    5.12161902807356   13.54160195668292
C         9.33323235098596    5.95671748164101    7.67795540340300
H         9.81151907345303    3.82297414755201    7.44152296564365
N         9.10344116881084    6.66029554355608    8.83327827869414
H         9.10448594355153    6.03120132804214   10.88253003762504
C         4.15878732234857    1.56217858863661   11.00276536816868
C         4.20840290456716    2.85808934675315    8.98790296694399
H        13.80690704367248    4.94442261697470   13.01865351608235
H         4.88843789929380    3.81619830816188   12.21956811729364
H         6.48506823434783    5.09968167006598   13.94305340384959
C         9.02096528199069    5.59331464500803   14.52754126521972
H        11.67131688202311    5.70578680043859   14.44142687305965
H         9.29833835622952    6.40913872620192    6.70958784276295
C         8.78744973476036    8.00298411455793    8.98657428577813
C         2.79068050931920    1.40899078363549   10.86961710587532
H         4.67891010894498    1.11340233501871   11.83703569400024
C         2.83984526414445    2.70736630829655    8.85778658770194
H         4.76593387582290    3.42767728684129    8.25787026212080
C         8.48565093743576    5.02420405410876   15.67937401200965
C         9.34772304461286    6.94619732657872   14.53879839908044
C         8.65706224497809    8.88222975778652    8.00376815403394
H         8.64754589814528    8.28597880642245   10.02101272327404
C         2.12694901798079    1.98159527426526    9.79748865082487
H         2.23905997347374    0.84050050016975   11.60485803455208
H         2.32640248415225    3.15834602147948    8.02047635995856
C         8.28460160828851    5.78854612053261   16.81401459244824
H         8.23308884924653    3.97332519290104   15.68020295374324
C         9.14347855078234    7.71068884428046   15.67288206842322
H         9.76208509471076    7.39789753289390   13.64806683956912
H         8.79080070724052    8.62506673382683    6.96848224984866
H         8.40816851641809    9.90477300202009    8.21743971794056
H         1.05808274330015    1.86312062069037    9.69482266385108
C         8.61193144131623    7.13416111269792   16.81423660836772
H         7.87176297959608    5.33297053936527   17.70273403289946
H         9.39919433294941    8.76073962086039   15.66675776066141
H         8.45375580797047    7.73123723331651   17.70038761653244

