64
CSD_code = JEHBII | q = 0 | S = 0 | Stoichiometry = C24H33Cl3P3Re | MND = 6
Re        5.63769254670410   16.61156479928432    2.46546119876541
Cl        5.31649953361091   14.97781242542142    0.79528808576353
Cl        4.15263507171860   17.99621139780443    1.28190056272687
Cl        7.14704664499387   15.32821518067050    3.71405285739484
P         5.81979287965090   18.38305080486816    4.10727210456968
P         3.91306888965876   15.33176229234523    3.52459365296754
P         7.46067918994057   17.20131184395801    1.01560647096005
C         4.31531189786444   19.19082193124851    4.75801322711468
C         4.45238653287055   20.17876861931480    5.73123146419618
H         5.43605632022041   20.43915577275690    6.09712679189725
C         3.33473602608912   20.82110864040553    6.22740938863102
H         3.44540205245281   21.58297777355872    6.98522910307884
C         2.07390349546939   20.49381604939712    5.75150348776017
H         1.20279645571723   21.00024021393636    6.14030986619778
C         1.93532077259136   19.52597144816225    4.77222120100486
H         0.95599920719275   19.27838820164087    4.38971643934267
C         3.05319782354753   18.87682307970928    4.27572180625441
H         2.95951123089115   18.14021809455186    3.49131660665080
C         6.66705301656951   19.92373022625080    3.60270616138722
C         6.19354515628899   20.52517906147900    2.43788348037105
H         5.40454415394397   20.03804395770251    1.87973038828459
C         6.73122808753842   21.72189475818172    2.00292948916997
H         6.35970850084467   22.18204114991133    1.09909619323201
C         7.74607121590523   22.32932131292725    2.72620046850304
H         8.17020253951062   23.26274137029764    2.38648218974122
C         8.21301390399120   21.73893163518757    3.88807464504925
H         8.99916693166870   22.21387687474523    4.45709362925622
C         7.67455234783175   20.54297086819985    4.33254393202501
H         8.04308883013362   20.09663740551044    5.24511162310707
C         6.69407014711467   17.87940684565618    5.61802498946277
C         6.03788576019529   17.65773192714722    6.82256588602845
H         4.97755981379151   17.84981064828390    6.90549617351827
C         6.74326826049841   17.19455384119790    7.92001721455783
H         6.22716282247529   17.02495969189761    8.85407385373868
C         8.10061720745281   16.94138829761740    7.82188536328957
H         8.64591552929573   16.57644608325102    8.67972662601577
C         8.75703545697952   17.14573439080785    6.61844254178751
H         9.81320558592135   16.93607599543504    6.53498864539150
C         8.05654403397880   17.60448943962128    5.52025475505635
H         8.55465683881290   17.74196938341546    4.57056026897854
C         4.30415247792184   13.55054184273755    3.58007455537155
H         3.47314833084726   13.01377823916005    4.03780694122503
H         5.21057550550944   13.40484225948441    4.16606989349487
H         4.47428270713947   13.18285598234804    2.56989377926831
C         3.48394223556118   15.61052316547185    5.28190994797188
H         2.74979514871076   14.87146570480083    5.60066316873799
H         3.08457422555463   16.61125260569716    5.42785452770932
H         4.39333907937126   15.49946073520963    5.87183270595900
C         2.29849855061319   15.32525965297286    2.67536170967447
H         2.46553523798408   15.02719829209317    1.64042252533489
H         1.85860449281982   16.32024745040432    2.68286749923480
H         1.62762707207155   14.61796303344513    3.16199479249095
C         6.93005721997692   17.78898256997173   -0.62545627001943
H         7.79308073104137   17.88958220316844   -1.28285018802446
H         6.42746001321629   18.74885583163343   -0.51633581361689
H         6.22526903252143   17.06983996809901   -1.04161306419598
C         8.49848830587534   15.75575237886206    0.61154603151354
H         7.87922290291450   14.97319149173000    0.17739251561474
H         8.94859600220944   15.37818443117682    1.52911509190233
H         9.27570051329973   16.05140469196269   -0.09300095645752
C         8.76578001706099   18.41300140307959    1.44559812272701
H         9.22952332058630   18.12532676189874    2.38704624531753
H         8.34421439345878   19.40920160529706    1.54617631623671
H         9.52109977174774   18.41413396535123    0.66056708931130

