53
CSD_code = JEHGIN | q = 1 | S = 0 | Stoichiometry = C15H33ClN3Zn(1+) | MND = 4
Zn        4.02610571038924    8.64299785204610    8.35508721018700
Cl        2.38954335387945    8.87489196024354    9.72766311584511
N         4.14825463469450    8.15450986314504    6.28458916684651
C         5.20791404231523    9.01006737586650    5.71849547463997
H         6.11519379495744    8.41747342074139    5.60443896746273
H         4.93367585242773    9.34476213016239    4.71421838067694
C         5.50469958676958   10.25578805554202    6.56568671577549
H         4.67528545313115   10.94854217675769    6.45767857429430
H         6.40877328462495   10.73785251825838    6.17245159691031
N         5.65744008005420    9.96005884670519    7.99864022026655
C         6.88531477724912    9.17565619748442    8.22197433478350
H         7.30607327456504    8.89424740102231    7.25663790268053
H         7.64419346165984    9.78481456075821    8.71994077054797
C         6.66378235911068    7.91233978361995    9.06441779668450
H         6.48582239824945    8.19563617517891   10.10272203895277
H         7.58613545228051    7.32154879843685    9.02265585904207
N         5.50590071241036    7.11888455712359    8.62835344143885
C         5.74085940793840    6.49785039243056    7.31553234674319
H         5.84437234171486    5.41533562733794    7.41268598720366
H         6.68535247918985    6.86249195082353    6.91054083836294
C         4.59760916178922    6.75334847546802    6.32100943628356
H         3.75193358280096    6.14211471976303    6.62383509826018
H         4.92016878458268    6.42708188758171    5.32428704394519
C         2.86924727793796    8.29692006251141    5.53423377204966
H         3.05191098954696    8.01423600235165    4.48642483259946
C         2.38317350564330    9.74236314674717    5.58990030289004
H         1.41706671131661    9.81391900438949    5.09823207312454
H         3.05026619349888   10.43323841240676    5.08360025832586
H         2.25462869431217   10.05112188979997    6.62848143305524
C         1.76712586086030    7.40611636973797    6.10346809224631
H         0.81565449613363    7.70542972079860    5.67323085994735
H         1.69487962565164    7.53180285264922    7.18368824448365
H         1.90324736124654    6.35537183705221    5.86561694690818
C         5.64801239516951   11.20468293362960    8.81845631501542
H         6.52082745609985   11.81067877406941    8.53137673778155
C         4.37954163995963   12.02574612770684    8.59772315313882
H         4.36167045247162   12.53333840056726    7.63753676017261
H         4.32205109696242   12.79582842577340    9.36180976154135
H         3.49552456128756   11.39568808542997    8.69671357076543
C         5.73789913589232   10.85969960527930   10.30263083075669
H         6.67993972136318   10.39230499528151   10.57250025363731
H         4.91300102202102   10.20548442068526   10.58443050656983
H         5.65507245379208   11.77168398795996   10.88673397727058
C         5.11177986757642    6.14610112811524    9.68828776321482
H         4.89512635324255    6.75479865911579   10.57391742004108
C         3.82838863671958    5.41524103932862    9.31212883534762
H         3.04907949283653    6.12097012153931    9.02814607049755
H         3.47127348999921    4.86469484702984   10.17801306882869
H         3.98567026502993    4.70017268587962    8.50890269422680
C         6.20837503493491    5.14563557248715   10.05412251726374
H         5.82482374437628    4.47559365731480   10.81802725930673
H         7.08706359279494    5.63758281265668   10.46112561453008
H         6.51037488453884    4.53735969520902    9.20539775662935

