32
CSD_code = JEHHEK | q = 1 | S = 0 | Stoichiometry = C8H19BrN3Zn(1+) | MND = 4
Zn       -2.17449545309309    8.24618397617235    8.66034242032296
Br       -3.38302681762505    7.48503388247984    6.91087727261235
N        -0.36564894206149    9.26659915934070    8.33186629402996
H        -0.00321659450859    8.99422667819706    7.41690251215228
C         0.57680725483631    8.75782220670244    9.33936894429664
H         0.42123506122332    9.31225779634848   10.26516869706521
H         1.61622544886079    8.90272850348531    9.02842805794280
C         0.32570912374038    7.26997978264769    9.59301685185873
H         0.50375091807041    6.71281589246616    8.66897383427514
H         1.02506084689492    6.90576682971497   10.35277073592160
N        -1.07225142129955    7.04921032444922   10.00181265050039
H        -1.28793513257693    6.06562757215565    9.84573045767764
C        -1.32214912782995    7.32581150420778   11.43355535600314
H        -0.58169342016693    8.04643420155880   11.78569671585800
H        -1.19095792719383    6.40922343509668   12.01633276299139
C        -2.72185524080152    7.88923889239434   11.69216797788774
H        -3.46482141620107    7.31748684574492   11.12830220062936
H        -2.94304805149696    7.75027301541806   12.75083219878029
C        -2.85685348308516    9.38098524426198   11.37914280669397
H        -3.69642877144793    9.79794757405718   11.94549253848720
H        -1.95269892718790    9.89423037812978   11.71028069368374
N        -3.05004650213215    9.64245279613067    9.93741487868265
H        -4.05185279416869    9.53660072164084    9.76557715735830
C        -2.72622090083101   11.03520614500592    9.55438229536388
H        -3.19448794112674   11.72606319355971   10.26551257330497
H        -3.16211850613114   11.21847347211243    8.56850265056382
C        -1.22753650381102   11.33504138474186    9.49901156541084
H        -1.12450103781846   12.41832786528516    9.42043048735552
H        -0.74890946801104   11.04628039587636   10.43457179915329
C        -0.47470876518631   10.73994432165111    8.30837366327853
H        -0.99643360859802   11.01360438640338    7.38789805184358
H         0.52780810076443   11.18362162256341    8.27496289801396

