75
CSD_code = JEHJEM | q = 0 | S = 0 | Stoichiometry = C32H34Cl2N2O4Zn | MND = 4
Zn       10.95975061048359    4.82736179736910    2.82816283076809
Cl       10.33317714076318    3.48969720644634    1.16689528887513
Cl       10.22370117873762    6.06851408183349    4.51407728842190
O        12.34985231726461    5.90857555297548    1.85014186413042
H        12.99584096563734    5.00344955322796    0.57223307989332
O        14.24652311298675    8.81733398411863    5.09506659157322
O        12.37788392892180    3.84736970258669    3.87228414979145
H        13.04720924657024    4.80009377108525    5.08670325121476
O        13.74165698321221   -0.17709628479262    1.73356889141979
N        13.92774123250632    4.74976255008940    0.19417407399409
N        13.91908304651970    4.85060550287870    5.64526660603333
C        13.37952034245487    6.42644279734776    2.41245490369328
C        13.23171179242702    7.35872096022319    3.46083439280470
H        12.22034667956451    7.58695838883789    3.75481806597981
C        14.31728371641204    7.92213716725897    4.08412116888047
C        15.62805828364549    7.55804671749308    3.68687641685763
H        16.46088846380266    8.02093829352714    4.19253425279264
C        15.80800146708689    6.67000863024542    2.67166234296837
H        16.80846227833549    6.40387894681458    2.36251557746864
C        14.71520084244146    6.09061664683845    1.98458474202014
C        14.93141577843894    5.22951723332826    0.88424463976150
C        16.31633659731723    4.87584710341365    0.48459583733690
C        16.90674965928853    3.73246840027718    1.01109870538448
H        16.35249802256569    3.11842517484281    1.70587166124969
C        18.19741290252662    3.39261635453377    0.64584620295557
H        18.65198244392968    2.50428583386917    1.05772216124709
C        18.90167782240010    4.18649555878489   -0.24413767075356
H        19.90805259474476    3.91822865874435   -0.52826239232465
C        18.31465962145381    5.32582072455084   -0.76942921160678
H        18.86147681185630    5.94666750156276   -1.46307986767910
C        17.02500184114618    5.67302137075801   -0.40727394459976
H        16.56287985698989    6.56176045392401   -0.81122816242197
C        13.98365058064878    3.92014219850290   -0.97894871140539
H        15.02380436544323    3.79535348956480   -1.29242769660941
H        13.43235876083028    4.43266929237771   -1.77432921528231
C        13.33183483472319    2.57029584946918   -0.70442387231813
H        13.92745695957753    2.01039575598164    0.01187295591228
H        13.25941608831936    1.99892121287756   -1.62546844832009
H        12.33192158020328    2.72194910400855   -0.30013563099826
C        12.97150673809010    9.29349078972790    5.48136295289301
H        12.48478604773531    9.81908155470010    4.65603598656395
H        13.15432252713705    9.98798824761071    6.29943182819569
H        12.32244516500265    8.48317271383377    5.82176982151170
C        13.26099498736118    2.94557146818628    3.65170563062390
C        12.99022510024690    1.85806119093816    2.79615278627380
H        12.00774287084490    1.83277532731803    2.35323730426348
C        13.93706241077808    0.90020665842293    2.52176934395825
C        15.23546528726377    1.01605342784827    3.07888446500977
H        15.97242115707302    0.27546474284445    2.81316042628393
C        15.51608622551058    2.02729267272298    3.94543581207028
H        16.50243724415219    2.09870012341591    4.37999183732509
C        14.54704470423137    2.99424822104076    4.30674831255560
C        14.80734798150346    3.93995184114221    5.32687797667747
C        16.08173603407274    3.89661722958665    6.07797552106313
C        16.97276622635922    4.96105944510015    5.98317517272165
H        16.72739584030137    5.79965847533441    5.34879493597931
C        18.16661887000536    4.92898520863248    6.68092269495235
H        18.85764979724530    5.75430307979376    6.59791103152233
C        18.47301468345108    3.84507345591906    7.48722129726454
H        19.40278054319413    3.82496795912918    8.03548564552289
C        17.58514597027271    2.78680764279255    7.58997743628618
H        17.82042656252078    1.94178109398359    8.21937364717037
C        16.39509884519506    2.80687097119581    6.88480910906740
H        15.69854260343931    1.98522619095456    6.96248376237912
C        13.93356104850547    5.73899591086764    6.77829709305363
H        14.23721637096200    6.73716037099227    6.44845486530249
H        14.66671634938586    5.38906345778172    7.51186442744993
C        12.53671267946870    5.79692004216809    7.38460957750340
H        11.80018394973977    6.04704149105532    6.62206990841697
H        12.50032919961764    6.54713498879354    8.16943804245250
H        12.26857765118640    4.83392175768028    7.81232022500448
C        12.43468743805177   -0.44202106114488    1.26324578384346
H        11.73741935943317   -0.56341428338030    2.09623416265757
H        12.50819865534775   -1.37549056398872    0.70813233296234
H        12.07215212308859    0.35018091909606    0.60465572408372

