79
CSD_code = JEHMUH | q = 0 | S = 0 | Stoichiometry = C29H43N3OPtSi2 | MND = 5
Pt       10.76164738016483    8.17412978291499   11.66807930821618
O        10.93552886124460   11.55599684903680   11.83466355295854
Si       11.03156319651740   11.04907486842083   13.39411798748638
C         9.44341763864550   11.66822200294512   14.23968452680944
H         9.25681581464361   12.70951766216047   13.99969104376010
H         9.53837246431648   11.58614930717804   15.31689594843548
H         8.57189322264367   11.09717748884104   13.94014037205030
C        12.55269772452734   11.88648066029002   14.18009708540212
H        13.47570895321378   11.52378605010545   13.73904417321643
H        12.60203217307402   11.70482810810055   15.24842255508037
H        12.51766092683147   12.96004380532648   14.02785901218179
C        11.26002773807706    9.17816820513395   13.48408214828336
H        12.23514628986576    8.83792797232942   13.83888512235482
C        10.18902286672575    8.26976958766005   13.67888987659759
H         9.18697265668457    8.67130879446322   13.82295167818761
H        10.36649867318324    7.36434697272987   14.26066596175736
Si       11.64984806580964   11.09569037261780   10.42869801187467
C        10.37691292704191   11.48944499062686    9.06499542036888
H         9.47559049513859   10.89127267908635    9.14775618490214
H        10.80624863712892   11.30942120009397    8.08500327560808
H        10.08279184453786   12.53304446173829    9.11062146785603
C        13.20149802487877   12.17439700382443   10.19282397778014
H        12.94099189345563   13.22662623599173   10.23082011657466
H        13.68107624901990   11.98513316449876    9.23859392676373
H        13.93106762027711   11.99057273540029   10.97459548103781
C        12.15674201702597    9.27716333668187   10.49683094361373
H        13.17988733111554    9.06635653107789   10.81159610987245
C        11.52346787509252    8.27375461114022    9.72185261940648
H        10.78413923452444    8.57629742112241    8.98025000671175
H        12.10596288750677    7.40375613021205    9.41157816626946
N         9.35512785249144    5.48006000298721   10.68242296485322
N         8.18411290783721    4.88275954450509   10.54556772106004
N         7.29988852388997    5.75756221450917   10.95338899712239
C         7.89354877766229    6.91275136807098   11.34575737117496
C         9.27864027604230    6.73691783986630   11.18026406317096
C        10.51493981755156    4.85411103671607   10.15655356921008
C        11.50459627823286    4.37119306704926   11.01138802345844
C        11.42778094864127    4.54645582909818   12.50705774044512
H        10.44368658617054    4.94353670359592   12.77353069136779
C        11.61438774068774    3.22015478915141   13.24581163323600
H        10.90281228659781    2.47943290605654   12.88622076653561
H        11.45238950105465    3.36626512530864   14.31140596489159
H        12.61843871844960    2.82806948705863   13.10819386152778
C        12.47887336168104    5.57669172368819   12.92758722950130
H        13.47670555610770    5.25243970871663   12.64304717637644
H        12.45316634717867    5.72527103255876   14.00436451389956
H        12.26338021094968    6.53543895409716   12.43026268806645
C        12.61051149276414    3.75175588490816   10.44192964839584
H        13.39565579215104    3.37504617475994   11.07824371650358
C        12.71971187245182    3.60909429083340    9.07374227634489
H        13.58123896575893    3.11472047226031    8.64975404355161
C        11.73551405173990    4.10978844166303    8.24241622736854
H        11.84070933427113    4.00372552572777    7.17473202375821
C        10.62310595449028    4.75257785712567    8.76466935348879
C         9.55963059772616    5.31760571134941    7.85173973540439
H         8.99531233139997    6.07950084091150    8.39877303797918
C         8.59728471470494    4.20031832757998    7.43742371469584
H         9.13248232329822    3.42862734972577    6.88877842304945
H         7.81027687392492    4.59694162866657    6.79945937509656
H         8.14570378504050    3.74796085880813    8.31742962869688
C        10.15255364620047    6.00497000748122    6.62122184068548
H        10.92613419988515    6.70954682981007    6.91658293527741
H         9.37158645038142    6.55068325242890    6.09592460106457
H        10.57964019918436    5.28477638316231    5.92859437058440
C         5.90904458425291    5.41658005584963   10.87031747188045
H         5.80225356968691    4.62527906131657   10.12968073680644
H         5.33272633326693    6.29136320811598   10.57132306453095
H         5.54191265617369    5.04945027317240   11.83047887019817
C         7.22026169089600    8.13395753868314   11.75312057495194
C         6.02723277386916    8.14996414318140   12.47429293664449
H         5.57319049436520    7.22852388828612   12.80635781726243
C         5.43872907959226    9.35359997134569   12.81862002594721
H         4.51739759489827    9.35308059841792   13.38298535935263
C         6.02637701133274   10.55275222312073   12.45155548821648
H         5.55848584673568   11.48775231079461   12.72162282305386
C         7.22562343869423   10.54691143382880   11.75587403511584
H         7.70645996914421   11.47401881234243   11.48509692300758
C         7.82231153815118    9.34980579477843   11.41338800581842
H         8.76923345953207    9.34845052480659   10.88185987794193

