42
CSD_code = JEHPOB | q = 1 | S = 0 | Stoichiometry = C11H23ClN5OPt(1+) | MND = 4
Pt        2.22575652953269   10.43564681406678    9.53542591164482
Cl        4.19280795096261    9.60677964409967    8.73982745357635
O         0.66734922425501    8.09730935428092    9.30234630743102
N         1.51344875281580    6.54891695397707   10.73928545594722
N         2.25371289321945    8.78847063484252   10.73430297966398
N         3.97541441523489    9.50108645574466   12.05767170521201
H         4.76384724851756    9.29762666705617   12.64885378505456
H         4.03276462362879   10.30860143711798   11.44268566272639
N         2.22560939861674   12.00333698572199    8.21300464536105
N         0.46599275973507   11.34767593547287   10.34564720901271
C         0.66331676280213    5.54618606145870   10.13662193938564
H         0.79388003111843    4.59506324089823   10.64486101102483
H         0.91529501169982    5.44134993518798    9.08053792241847
H        -0.37778905862685    5.86426322060376   10.20059662858481
C         1.43993488011873    7.83081724855761   10.20190849022847
C         3.16637232952550    8.51319547663507   11.66353155569639
C         3.21525508121699    7.21296974325965   12.23182371150924
H         3.91969237898030    6.98217295812281   13.01013401135483
C         2.37983627416374    6.26715493487335   11.72676656661180
H         2.38873241294064    5.25021140314214   12.09011335566738
C         0.96963669732400   12.76262855065737    8.39760596841293
H         0.18942362412760   12.30296651277106    7.78778774904559
H         1.09397829395212   13.79675279620997    8.05707464949718
C         0.55165176737941   12.73918434807309    9.86451459053965
H         1.29525473763061   13.26697759281686   10.46818710985664
H        -0.41126472366622   13.25098210181442    9.99012955412020
C         2.28395864644521   11.48116690260606    6.83965664217593
H         1.50318101597011   10.73245224058120    6.69260005157029
H         3.24943461994820   11.00721643468984    6.67115678043884
H         2.15493286848527   12.28923304323502    6.11334792979392
C         3.38507871935845   12.87584521388968    8.44243585529819
H         3.34455121722040   13.31222455247705    9.44026894098123
H         3.40925986407723   13.68416732442796    7.70538429355068
H         4.29966735502048   12.29032693264058    8.35317785829969
C         0.45372954819276   11.33625022505475   11.81039208353595
H         1.37585071912574   11.76762983517860   12.20099533119780
H         0.36771534189605   10.31223457656895   12.17095158886090
H        -0.39501830901567   11.91142309932068   12.19586790674005
C        -0.76074880306767   10.71545453046015    9.85616020058858
H        -0.74784764636886   10.63467741482061    8.77219676656992
H        -1.64168693496524   11.28662571791332   10.16626309663352
H        -0.83666851952968    9.70544494867251   10.25059874417790

