33
CSD_code = JEHQUL | q = 0 | S = 0 | Stoichiometry = C12H16ClIN2Pt | MND = 4
Pt        2.32886638607340    2.53581625496376    3.11341104813879
I         4.44581588659167    2.36612350489398    1.69773091461881
Cl        6.30676976009273   -0.01191021125151    6.47593274851319
N         0.72238949711153    2.65414963993545    4.34002449032162
N         1.18276294386816    3.60105429146696    1.37573031893933
C         3.15080148838996    1.71131273017797    4.75704661819092
C         2.25113366850268    1.74069146876696    5.84808554617178
C         0.96030429619535    2.26757627714329    5.54567833871450
H         0.18553905856010    2.31584547114040    6.31068109478731
C        -0.60643653551275    3.10899743077758    4.02406704994737
H        -1.12185173261931    3.41689314489454    4.94469145857696
H        -1.16915562678435    2.26790610321484    3.59546703200665
C        -0.60873556616424    4.26462886454435    3.02823894422694
H        -1.61385081618023    4.68998730703537    3.00326104219292
H         0.07219594764937    5.04396718745662    3.37400372249600
C        -0.24949474079740    3.80544570170194    1.61881793887454
H        -0.76594588295653    2.85974195139957    1.42584092239260
H        -0.63171030654739    4.54305350454097    0.89379153461871
C         1.84505919863312    4.90449328584168    1.25821987958213
H         2.86826982257535    4.77420230528848    0.91211278518766
H         1.87643140887366    5.40958110221711    2.22490494183255
H         1.31877196641735    5.54892212793599    0.54123103355541
C         1.29623802838612    2.89569587186314    0.09452853507445
H         0.90684303904295    1.88179655311390    0.19430980397925
H         2.33555585641925    2.83371693798239   -0.21655110758847
H         0.73262957537047    3.41743935476287   -0.68965618220581
C         2.60492525779151    1.25303612581988    7.10756478767756
H         1.89282883426673    1.29585439583802    7.91931407092962
C         3.85679006534894    0.71593379397093    7.30699443692542
H         4.15278207271834    0.33174596618210    8.27009928577249
C         4.74064270034579    0.67140274298255    6.23509001167860
C         4.40447155317138    1.15940843884122    4.97894877827447
H         5.14186289516617    1.09279037455665    4.19548817559597

