45
CSD_code = JEHVIB | q = 0 | S = 0 | Stoichiometry = C19H19N2O4V | MND = 6
V        -0.66454233411327    3.33885816686789    0.73467221699987
O        -1.48596573131155    2.82275706733017   -0.46234179369975
O        -0.28257458492239    4.97435306312336    0.13982912212297
O        -1.87205657860875    4.07627710205435    1.78667893308774
O        -0.38068515230871    1.94364424262716    1.59531043709292
N         1.10633061788334    2.83933871726444   -0.20362191235489
N         0.72663482696979    4.13913971639416    2.51955197420513
C         0.73473981224181    5.66444682036199   -0.21398958835309
C         0.69380666157079    7.07964457159192   -0.21216681207396
C         1.77906646994507    7.81704483198697   -0.61207669878886
C         2.95130944504696    7.19456280091977   -1.05040581074662
C         3.01955966638094    5.82372852642569   -1.07928003855199
C         1.93769805856892    5.03832894518678   -0.65556504945790
C         1.99251431844254    3.61301173977694   -0.70477111445233
C         1.27742262483659    1.41358511557790   -0.31957737055147
C         1.65658346715227    0.81194398593928    1.04057460509261
C         0.62073621880826    1.20487245242408    2.14323679509629
C         1.30706072956574    1.94081903090758    3.32191909054911
C         1.83015122244533    3.33490854336093    2.94540057291352
C         0.36876836466852    5.15182062263997    3.19387924276390
C        -0.84666342601443    5.88586192062342    2.94850421961278
C        -0.99473340277772    7.17754235400069    3.46415140252835
C        -2.16691844523252    7.88181932411470    3.30900116271958
C        -3.24226076643610    7.28572570427873    2.65310962833335
C        -3.13930236466639    6.00687856608750    2.15993886016228
C        -1.93961289238347    5.26982218186814    2.26886166073801
H        -0.21759137028038    7.55393063076591    0.12312472401879
H         1.72769233295860    8.89606770927321   -0.59200426108028
H         3.79217293169555    7.79146887365714   -1.36777773337644
H         3.91895340174566    5.32896257819717   -1.42033463425493
H         2.85685849362844    3.17704502903775   -1.22787291228351
H         0.31977976913682    0.99634799511986   -0.64832737969045
H         2.06345981964916    1.17005725014607   -1.05201249416261
H         1.69623892869189   -0.27286347122420    0.93936452992177
H         2.65111438718007    1.16377947301011    1.32419014523528
H         0.18562978641468    0.27286785518515    2.55635681296898
H         0.56720487580508    2.05887862481637    4.11802249435798
H         2.12813831593408    1.32681357443800    3.69821512937408
H         2.54763096273467    3.25979013319094    2.11987318658051
H         2.34625990818444    3.77642865537598    3.81836258409113
H         0.97859715909204    5.49866555022609    4.04655107198244
H        -0.15627271585495    7.62865951486736    3.97825433721850
H        -2.25653353479126    8.88434646214871    3.69880663896497
H        -4.16588150999293    7.83359957117717    2.53367833020821
H        -3.96491876768422    5.53211787685691    1.64840569493815

