99
CSD_code = JEHYAW | q = 0 | S = 0 | Stoichiometry = C48H40Cl2N2P6Pd | MND = 4
Pd        3.78079307577170    4.05676542811387    3.40699372124570
Cl        3.05181401974118    5.55248576447596    5.03520963436329
P         1.74265635733522    3.80923741099912    1.02483316192580
P         2.46065662011070    5.46902001168503    2.18889322340592
P         3.65649023357521    6.02121031202797    0.49835167706757
N         2.69471876414249    3.03367626100496   -0.03917072571134
C         0.98475556364120    2.61749825755659    2.18024837493289
C         0.33783393743697    1.54741510605245    1.56743852583372
C        -0.19773613033226    0.53163813598422    2.33422148561849
C        -0.07778835956351    0.57522267523886    3.71498807225229
C         0.54464482552071    1.64961358686467    4.32775477309016
C         1.07176189249947    2.68331850359693    3.56783929397828
C         0.35024506338309    4.36568563968108    0.02221222643577
C         0.22001346921006    4.03340630005479   -1.31694097640211
C        -0.87381714566012    4.49312216124784   -2.02764787805502
C        -1.83168689594221    5.27351323581213   -1.40144503948685
C        -1.70350700921059    5.59749051466072   -0.05919166833171
C        -0.61109366920477    5.14424052477451    0.65409835321664
C         2.65657665855989    6.39097309471836   -0.94865689836362
C         2.94780854103132    5.85393416725879   -2.19259521218603
C         2.13851365753279    6.16356102533395   -3.27119951479202
C         1.04973117570201    7.00330102643643   -3.10359870228080
C         0.76464001934866    7.54310756883504   -1.85810890948852
C         1.56760574891408    7.23781758509164   -0.77711967737488
C         4.32093241833298    7.62679127214008    1.02890747707908
C         4.33299387245025    7.99518047307480    2.36677082627452
C         4.89986881424913    9.20124560554894    2.73752867200990
C         5.45290289957971   10.03245942128418    1.77739981792813
C         5.44680256618255    9.65997062306108    0.44178427556568
C         4.88400956440611    8.45540529601392    0.06548444244899
H         0.26737995907824    1.52594008721453    0.48686101754614
H        -0.70004568173760   -0.29696153617971    1.85703641733087
H        -0.48125286433152   -0.22713330150824    4.31479128947927
H         0.62471498414691    1.69171209068903    5.40368787489172
H         1.50226364889250    3.55001028626318    4.08123959721633
H         0.97770207288153    3.42340987319008   -1.78529649680937
H        -0.98113603238179    4.24134438225705   -3.07268552700558
H        -2.68391291021894    5.63039388048544   -1.96094142954011
H        -2.45485096486388    6.20268464741286    0.42620579520411
H        -0.48395724531488    5.38789591942676    1.70274917739016
H         3.80579221405531    5.20651974682526   -2.29450768890364
H         2.35686586102200    5.75115708686027   -4.24576304859556
H         0.41942827036298    7.24184528113514   -3.94756230069500
H        -0.08411604046320    8.19885208749676   -1.73368095749303
H         1.36611895487690    7.64512525604271    0.20600274799957
H         3.90944605215222    7.34157298151112    3.12463433357104
H         4.90924638201990    9.48895101470982    3.77789264038470
H         5.89275397599545   10.97460586623899    2.07011197022739
H         5.88069753342589   10.31019313058535   -0.30406138128082
H         4.87184618895151    8.14315533191290   -0.97118360605670
Cl        4.50976250900822    2.56100510165786    5.03521345686194
P         5.10086653901700    2.64445131083469    2.18886991254215
N         4.86678727128137    5.07982369591545   -0.03917146649578
P         3.90501434180481    2.09229308171406    0.49835592166976
P         5.81885003700663    4.30425720550419    1.02483121281052
C         4.90491750668716    1.72248755490097   -0.94864544978752
C         3.24055208829735    0.48673690131459    1.02893204474001
C         6.57672782027092    5.49599817992832    2.18025880134373
C         7.21128211363858    3.74784240232311    0.02220819222432
C         4.61368325846296    2.25949773989316   -2.19259562767374
C         5.99388656662029    0.87564417841875   -0.77708781302352
C         3.22852902626952    0.11834591929228    2.36679536192574
C         2.67742119438098   -0.34185724126281    0.06552082771502
C         7.22360945849199    6.56610048638595    1.56744255470508
C         6.48975869706090    5.43015078463986    3.56784731494728
C         7.34150614167844    4.08012543893804   -1.31694628474301
C         8.17263238206415    2.96929727215771    0.65408708435840
C         5.42300024498201    1.94987681993474   -3.27118417600803
H         3.75567841513942    2.90688215149854   -2.29452105838600
C         6.79687114056483    0.57035694927154   -1.85806346603941
H         6.19534983751585    0.46833548304055    0.20603847340588
C         2.66164315632627   -1.08770965947151    2.73756600605371
H         3.65211795073770    0.77194680198165    3.12463886035849
C         2.11461257145934   -1.54641038172036    0.44183592119966
H         2.68955841691830   -0.02959406234151   -0.97114367214309
C         7.75918978095485    7.58187009568426    2.33422457190326
H         7.29402731303143    6.58758457037431    0.48685995078084
C         7.01690074464546    6.46384316996732    4.32776138185792
H         6.05926898046063    4.56344758735512    4.08124297379415
C         8.43532570176688    3.62039973601833   -2.02766490093336
H         6.58381919288638    4.69013487602835   -1.78529183619145
C         9.26503083468310    2.51603463786312   -0.05921758077095
H         8.04551869291874    2.72566042225113    1.70274534300329
C         6.51180298044882    1.11016937775291   -3.10355562433113
H         5.20465335011542    2.36226395045975   -4.24575368305057
H         7.64562466926817   -0.08538464460033   -1.73362043063980
C         2.10855568196327   -1.91890198779255    1.77745118769435
H         2.65230034308094   -1.37541892977151    3.77792446834995
H         1.68067386714589   -2.19661496283288   -0.30399517705518
C         7.63930121257999    7.53824922720595    3.71499382174337
H         8.26146723516365    8.41048689752286    1.85703167856916
H         6.93687285377711    6.42171535127924    5.40369780977786
C         9.39318836365729    2.83999018411379   -1.40147653044435
H         8.54263421633247    3.87218201419164   -3.07270313072346
H        10.01637771689214    1.91084040732084    0.42617319208165
H         7.14213942702705    0.87165229115315   -3.94750060296748
H         1.66869823051220   -2.86104074743223    2.07017157938467
H         8.04279456989756    8.34058919595338    4.31479457933726
H        10.24539044776656    2.48308206393843   -1.96098923069533

