78
CSD_code = JEJBIK | q = 0 | S = 0 | Stoichiometry = C22H42B9MoN3O | MND = 7
C         5.23696213701267    2.61665832125961    4.25019766178598
Mo        4.83669168178466    3.87220368472130    2.25897126968267
B         5.17541718616725    4.30196789258584    4.46089525259450
H         4.31215244088401    4.85242699481828    5.06407202479874
B         6.07127077927982    3.25628736472371    5.62023579419909
H         5.61789840317991    3.17638348492478    6.70345629920037
B         6.78048096850559    1.93720928243226    4.73388342466807
H         6.77472539588996    0.84782500527554    5.17705641153402
B         6.33654696778165    2.22844718071808    3.03311767806914
H         6.26389315623225    1.21161698905104    2.42124767887002
B         6.36601738132899    5.05822950385493    3.43363232484255
H         6.34792979511672    6.21505163470251    3.18551780577869
C         6.76108091072913    4.71129301643238    5.09190739764385
B         7.77697018585247    3.28226508247067    5.26249438725314
H         8.55590303068423    3.25253344396817    6.14092468185065
B         7.96079842246526    2.65229046938087    3.62889333011491
H         8.92706052847335    2.07287762337092    3.28891226965138
B         7.10809603896667    3.74206488187416    2.49123507463434
H         7.63662645117887    3.88948356180718    1.43591396735063
B         7.94547781372833    4.40855221359322    3.91418308963404
H         8.90029303033877    5.08949976991803    3.83152659054597
O         4.71247506740360    5.03094231192237    1.10326622738993
N         6.73010979325867    5.75998466429423    6.06032326165607
H         6.38420424639275    5.41117381213908    6.94427340394018
C         4.05515478201145    1.76773528374444    4.57311846772884
C         3.86030632386460    0.52363025556933    3.96286608244758
H         4.58742648573248    0.16225811382813    3.25207927373821
C         2.76274951484112   -0.26354794818125    4.25353811500632
H         2.64153695254858   -1.21821304600599    3.76010948081858
C         1.82342161611313    0.15312365369904    5.18183817569146
H         0.96663253549489   -0.46287785642102    5.41189073920333
C         2.01047741365592    1.36739184294007    5.82065399489498
H         1.29893447287096    1.69646063286512    6.56593433541465
C         3.10382752541036    2.15833124234810    5.52268928216358
H         3.21818560853003    3.09862046997441    6.03967633132849
C         4.33657727639666    2.27900977811536    1.19308261732568
N         4.12634067148297    1.42483087558167    0.40242928916207
C         3.32471235597557    0.45308817335013   -0.24872179094655
C         3.42732041577770    0.70558486643396   -1.75570971942216
H         4.46038876300591    0.61623253628509   -2.08162843827629
H         3.07767876443347    1.70762843992834   -1.99305279140678
H         2.82257444514823   -0.01720689725298   -2.29734000270772
C         1.87427237306374    0.58430379469503    0.22939840088970
H         1.82391590123193    0.45046253550297    1.30842062788957
H         1.25028521995017   -0.16563253421815   -0.25059097597532
H         1.49228042892062    1.57261691298184   -0.01918698630168
C         3.88781678822273   -0.92730579116653    0.10392419730734
H         4.93698845030470   -0.98801080702991   -0.17423351717288
H         3.33749802411189   -1.69907293814553   -0.42795987147970
H         3.80106876380641   -1.10786283826786    1.17246039668778
C         2.94777733345469    3.81597903540934    2.88198214568415
N         1.83196486907229    4.08242130272696    3.15592945501161
C         0.01268285717427    4.51701714818964    4.62745393716816
H         0.41264055375134    5.50897244856566    4.82248974113683
H         0.40011084770397    3.83234650432248    5.37743960209373
H        -1.07051025464153    4.55254891573886    4.70834015648875
C        -0.07682234157799    2.62106717126838    2.97070710148429
H         0.18105567227104    2.30781461524264    1.96259662028155
H        -1.15704805760722    2.58019459577523    3.08547939062486
H         0.38013709774469    1.93031506186433    3.67611539922171
C        -0.11211701383830    5.00872980378122    2.15946356633255
H         0.24344578511577    6.01835578379292    2.34941642707662
H        -1.19899423813444    5.00862324816460    2.17014611247580
H         0.23329948367786    4.70503441530003    1.17366709972173
C         0.42086079902394    4.04744728102094    3.22755108874111
C         7.74875148860011    6.77445458163263    6.31584681177754
C         9.10713541304355    6.19098965188865    6.74061360692521
H         9.56547264490218    5.63656562225919    5.92877657445905
H         8.98203465010607    5.52037267604298    7.58897896016691
H         9.77872204261910    6.99450329688031    7.03378861967245
C         7.19510040918821    7.61201937564849    7.47882670528645
H         6.21037284591518    7.99609206850230    7.22417200253073
H         7.85244091230954    8.45134113534459    7.68968952548439
H         7.11009411233657    7.01065400690303    8.38261136846184
C         7.92389723879464    7.69583356630165    5.10640498119001
H         6.95787679147996    8.08460912539769    4.79623394094260
H         8.37197335256262    7.17133461604513    4.27090916044627
H         8.56709101939895    8.53111600459824    5.37374687741632

