41
CSD_code = JEJBAC | q = -1 | S = 0 | Stoichiometry = C11H15B9IMoO4(1-) | MND = 9
Mo       -0.62448323638332    9.10580400687689   12.09575707668998
I         1.61901387560122   10.93805231000143   11.52570980276544
C        -0.33779604673050    7.34772213301515   13.67809991685986
B        -1.94508173548572    7.68754467271861   13.27168750678380
H        -2.66644752320085    6.96331848958925   12.66829760369715
B        -1.51432721756021    6.86381428113625   14.81331953522147
H        -1.85872125086052    5.74602814624730   14.91300823412443
B        -0.01090990147214    7.55485546354955   15.37442801672634
H         0.81505419513691    6.86550360890500   15.85511274731984
B         0.41202559106883    8.77749934714062   14.14211251948725
H         1.58851526215650    8.88923965691501   14.01694743635990
B        -2.30747483417805    9.37970985866174   13.66928753267093
H        -3.32530635988085    9.87445777348476   13.28095164406538
C        -2.63498629526853    8.13386389829274   14.79579237248231
O        -3.97583055497653    7.77749159700634   15.03546912692149
H        -4.52986577119028    8.53401386379413   14.81793949069657
B        -1.52437557416143    8.04135381422462   16.11669158636002
H        -1.93750532238369    7.72291462307638   17.17066021491610
B        -0.30093301421082    9.26571541813919   15.71132278918223
H         0.31714127990171    9.84194798952248   16.53423807585787
B        -0.81217359651048   10.09949514615982   14.18600993244056
H        -0.57293359813847   11.26706424387822   14.17729948490753
B        -2.00273000602854    9.58050054255895   15.41668105585409
H        -2.73625512442880   10.28399261051286   16.01900660769741
C         0.40680879755462    6.25259621470726   12.99473065072164
C         1.79353352283164    6.12608053036427   13.12259175995867
H         2.34149112382287    6.83221756726240   13.72766618966189
C         2.48834448909279    5.12168823011290   12.47713820754143
H         3.56262744181614    5.06353151984154   12.58563041516116
C         1.82106023969543    4.19706843355549   11.69285161022789
H         2.36524215265483    3.41574998911559   11.18152859168075
C         0.44591471348789    4.29013749110810   11.57040029033555
H        -0.09313099842527    3.57540097170642   10.96361406969142
C        -0.24895226036781    5.29643049319015   12.21338977127061
H        -1.32120849046706    5.34231094853784   12.09299941956213
C        -1.48208444280136   10.36739622243081   10.89306242762325
O        -2.08924446023341   11.03792228939299   10.16136292219952
C        -1.61302704619136    8.37972901191952   10.61127335914614
O        -2.19063025199764    7.94475908451195    9.69111939481543
C         0.37720087442292    8.07698473239031   10.77841468215584
O         0.88014135429583    7.41999277444754    9.96379592815586

