44
CSD_code = JEJCOR | q = 0 | S = 0 | Stoichiometry = C18H21IN2OPd | MND = 4
Pd        0.73393817446818    3.71919638808868    1.10513673557323
I         3.02511859250764    2.70950563490811    0.72635291386558
O         0.87373859661805    4.10226846729710    3.38242688501378
N        -1.17381432832380    4.64534909957369    1.60866251619166
N        -0.21114782625305    4.99251219747942    5.12599197346588
C         0.05281741024192    3.86484206170643   -0.74408956105923
C         0.43589994158609    3.17418032015641   -1.88314040401946
H         1.27665424537953    2.49474025848034   -1.85714243426056
C        -0.24590174428728    3.35516162442652   -3.07884058303464
H         0.07355403380903    2.81723939918346   -3.95940931253422
C        -1.32590862369483    4.21572597144859   -3.14631115567393
H        -1.85658444766695    4.35556946358733   -4.07650512300156
C        -1.73140602190799    4.89734470950705   -2.01156249890094
H        -2.58073337218791    5.56688751247031   -2.05316690250897
C        -1.05094750254451    4.72879247698571   -0.81515270639695
C        -1.46655240129591    5.47608638213037    0.43211865895913
H        -2.53265083386366    5.75552254672823    0.39948163808409
H        -0.87479881714389    6.39938557640982    0.50144304668499
C        -2.13839550052034    3.53496162838357    1.72090558400856
H        -2.34515448236780    3.16768916151780    0.70964627047745
H        -3.08120578678417    3.89337221941971    2.16580841860373
C        -1.53076636538947    2.43080206346303    2.55008739737358
C        -0.61778313483627    1.55376874447727    1.95110368331515
H        -0.51878953107631    1.51528664811385    0.86009202671960
C         0.08280651225846    0.64613936464119    2.73394567974067
H         0.79704068033340   -0.01875101272924    2.27119506509596
C        -0.13126511445255    0.59545713992337    4.10287043043755
H         0.42880194625884   -0.09963557857847    4.70977671168980
C        -1.07244702234168    1.42282746786106    4.68810686942373
H        -1.26236237596494    1.36514325684919    5.75017369728920
C        -1.76343313206266    2.34277691431291    3.91446440870220
H        -2.49218538916882    2.99543471830865    4.37860663849615
C        -1.09099578299629    5.39324711440567    2.86029602154739
H        -2.07919523824843    5.47228660835684    3.33408963676283
H        -0.72531512901809    6.40722356395573    2.65244783622459
C        -0.06823770116184    4.75605972852833    3.81069245311948
C        -1.25048332301872    5.81494355880609    5.69986064502682
H        -0.98251084054348    6.03868562126036    6.73027125426442
H        -2.21695136814950    5.30138730011311    5.70384974467021
H        -1.35019853911654    6.75931184899160    5.16378544866062
C         0.70298398554358    4.36159352198985    6.05559881607367
H         0.14681157932796    3.74434821863290    6.76288079551838
H         1.27169215174843    5.11657481688648    6.60117727940080
H         1.38976382630411    3.73365527154635    5.49157350091058

