20
CSD_code = JEJGOU | q = 0 | S = 0 | Stoichiometry = C6H8HgN2O3 | MND = 3
Hg       -1.13525334547819   -1.24688872746625    3.89776969229354
N        -2.62401592434889   -1.43279592128212    2.25109976983230
C        -3.36929136495424   -2.43204643736038    1.80195667949485
O        -3.50213627984892   -3.59533289569713    2.05432040721250
C        -4.04355987151752   -1.47672857534556    0.76795546303396
C        -3.15199031839485   -0.39303591592578    1.36783698429482
O        -1.13539512519761    0.56698303164187    3.89774889389948
H        -5.10967472342768   -1.37715586243001    0.94824265087185
H        -3.82357511149851   -1.76764693788227   -0.25471240701643
H        -3.65873003640176    0.40388531879858    1.91243122684646
H        -2.39255518967399    0.02736045751957    0.70785801699957
N         0.35347689305842   -1.43279495286460    5.54443190236345
C         1.09873234025386   -2.43204749228994    5.99361777454788
C         0.88143295641278   -0.39303839582944    6.42771279737024
O         1.23155698265593   -3.59534178741920    5.74127544261177
C         1.77299298615780   -1.47672922888231    7.02761655658339
H         1.38818470781998    0.40388922070110    5.88313679651088
H         0.12198286736612    0.02735227021830    7.08767786881013
H         2.83910875169330   -1.37715573688775    6.84733468466753
H         1.55300880532429   -1.76763143131654    8.05028879877154

