75
CSD_code = JEJLIW | q = 0 | S = 0 | Stoichiometry = C27H37BMoN6O2Si | MND = 6
Mo        7.83092673277637    4.13709576912608    0.74349933231109
Si        8.13035934801153    3.40357218943355    2.93950772405846
O         5.80613300483733    6.16927700472729    1.90220462602378
O         9.90548189895915    6.31810756379418    1.46380213296853
N         9.23617057443773    2.76629386178637   -0.22334377363529
N         8.88909720168706    2.14586011245470   -1.36047622936766
N         7.59550773037576    4.84105771159714   -1.24822762931338
N         7.50080745430568    3.97836097165110   -2.27248875612312
N         6.32439422337588    2.68565048768963    0.11311397586837
N         6.41750940320607    2.09533169924474   -1.08719710102437
C         6.45765318735303    2.49923692955815    5.54657975686055
C         6.18736105758164    3.90529502487396    5.38610465749302
C         7.34186690623826    4.55305728697909    5.05209470390371
C         8.41271714690805    3.53901891855827    4.88446433745897
C         7.77781454377149    2.26393817879099    5.30084840397690
C         5.41177236139626    1.51110773100913    5.94131264320362
H         4.58595090535425    1.52089560434657    5.22940584725997
H         5.00602151702081    1.76373079989852    6.92064041324928
H         5.81847455644426    0.50448709549217    5.98793576402864
C         4.83958416962062    4.50809727284403    5.58973890251669
H         4.80004446706563    5.51186671607108    5.17554692014577
H         4.60179934282309    4.56543353035769    6.65278450753892
H         4.07443945619685    3.90075547243250    5.10843642761970
C         7.56028186818318    6.01259270089663    4.85685511005045
H         8.36395913694103    6.19456855873937    4.14566814581488
H         7.82569813692361    6.48838027013788    5.80240924969407
H         6.66156150296552    6.49357776469156    4.47753070978296
C         9.82292209277317    3.86260368522960    5.32735075534198
H        10.50818678858421    3.05385712773643    5.08257187372977
H         9.84338260671502    4.01291700190735    6.40615845220204
H        10.17932583585425    4.77099580541135    4.84729450490036
C         8.53116083578045    0.98025916172421    5.40065211536126
H         7.87984065044989    0.12499722796230    5.23325848919761
H         8.97480476907901    0.87651016618546    6.39261188386996
H         9.33636700731291    0.94454903868925    4.66858833406471
C        10.46751271451427    2.37069151722769    0.09200161244301
C        10.91810147190135    1.46091977838996   -0.86982613289570
H        11.86654643254085    0.96354022318737   -0.89789894275633
C         9.88697128347186    1.34418244870813   -1.78160088535620
C        11.21602424673157    2.84073974199610    1.28743734912958
H        11.12411682979663    3.91918358377168    1.39921598349704
H        12.26625688607631    2.57934896879732    1.18304067138056
H        10.82883659406096    2.37196441792560    2.19362995911526
C         9.82775924626075    0.50949757482598   -3.01007980072335
H         8.98052857860895   -0.17329496625135   -2.97302780057996
H        10.74326686601387   -0.06956477420604   -3.09770052706133
H         9.72053324873361    1.13230080204116   -3.89684902893556
C         7.52747084405130    6.07164253388278   -1.74663417192254
C         7.38333472502025    5.99619202769483   -3.13479349980774
H         7.30012625366643    6.81332951919459   -3.82258104467054
C         7.37048690347748    4.64785611091250   -3.43437401274915
C         7.60456387057956    7.31249897336513   -0.93287711697253
H         6.86463745194449    7.30266625109590   -0.13487802876455
H         7.42392414426137    8.17539487311369   -1.56966102834998
H         8.58935685370396    7.41649427883940   -0.47923658896845
C         7.24024133599783    3.99971560026566   -4.76582157442502
H         8.11405730673915    3.38844216553712   -4.98642460289854
H         7.14588976487627    4.76573022651392   -5.53102539457883
H         6.36117501605359    3.35799350191140   -4.80045931060299
C         5.21963590148298    2.23244208440960    0.70148056314821
C         4.59016591728493    1.31754026991775   -0.14861407634283
H         3.68190535828759    0.78004761863667    0.03572417186002
C         5.37999478664502    1.25766847860893   -1.28039609735278
C         4.76136985726801    2.64582478081593    2.05393365211043
H         5.38974107964759    2.19966010224894    2.82618117489310
H         3.73571708873449    2.31604112252553    2.20304152934049
H         4.80912384715633    3.72699131242807    2.16639557033720
C         5.17776735737747    0.44622648185970   -2.50919401517795
H         5.05701458655081    1.08759616924443   -3.38087927221760
H         4.28499682420827   -0.16322857508953   -2.39654352641621
H         6.03065486149193   -0.20688611171171   -2.68658125378593
C         6.52964754047989    5.39347772738412    1.43178056100475
C         9.16120782246801    5.48705226112207    1.14057000697469
B         7.55408645703196    2.46276145017094   -2.04743145206007
H         7.45367342343582    1.87738300668871   -3.06618082988511

