52
CSD_code = JEJMIU | q = 0 | S = 0 | Stoichiometry = C19H19CdN5O8 | MND = 7
Cd       -2.42852479053005    1.76601092092144    1.58297037798632
N        -4.50362701729487    1.61607531248933    3.11311378780900
C        -6.74939161121345    1.12422194397944    4.66206960345348
C        -6.86946985364744    1.42141339692305    3.31551783378115
C        -5.71687735504783    1.65811800396725    2.57526290045489
C        -5.82383979541151    1.98794735453397    1.10937900593294
O        -4.75510137218678    1.36597707723980    0.43539512950995
C        -4.56714644237318    1.65590556629148   -0.89538124734450
C        -5.42775334155481    2.37395674927720   -1.70600813059162
C        -5.07890600321966    2.61613731339322   -3.02778070153475
C        -3.87968499247694    2.15492813901071   -3.53297230739329
C        -3.01745654891566    1.42954444821260   -2.72526856829093
C        -3.35414949849612    1.16695060243627   -1.40905513035072
N        -2.50441550576341    0.49845060958496   -0.50598064578996
N        -0.68248057541328    3.27072765618009    2.46168419816735
C        -0.00179707487082    2.68734979664165    3.54921331771310
C         1.37389244601437    2.70514550706433    3.69278426526608
C         1.96740491991580    2.07492781676338    4.77585127132461
C         1.18692761924360    1.43180798700008    5.71578522872925
C        -0.19396394574511    1.38801331349277    5.57834087392519
C        -0.78657552899094    2.00654786421438    4.49348468037077
O        -2.12818137307936    2.01632210494974    4.19092589313955
C        -3.00173008069833    1.26335743330829    4.99532397070344
C        -4.38496145417252    1.32767473422036    4.40200104342548
C        -5.48459660056439    1.07370343508937    5.21691789968965
O        -3.38135856252471    3.73774611715932    1.39750498644652
O        -3.39032703575444    4.73374948466924   -0.48104050056076
O        -1.94367618159833    3.22135025780104   -0.08612157628773
O        -2.70890100628023   -0.29804219486848    2.28993233231976
O        -1.11328544121069   -0.83075818116134    3.57937997942928
O        -0.75415828593690    0.46080840942735    1.92990410553092
N        -2.91235100470493    3.90813358102480    0.25338700111606
N        -1.51656776158213   -0.22416177926881    2.61873278543982
H        -1.61790956143493    0.23753694441427   -0.92546029518010
H        -2.95416394222938   -0.29904836735337   -0.06182044096938
H        -0.04958662997153    3.66174967789486    1.77135323120014
H        -1.36788167743016    3.96079626307972    2.76136292385201
H        -7.62455828921229    0.93314961849845    5.26462212571084
H        -7.83838735904012    1.46633472910644    2.84346042385519
H        -6.78603098268165    1.62941494279872    0.71783893071181
H        -5.76779563464546    3.08068732502330    0.99018686446369
H        -6.35448079114958    2.76857976696419   -1.32151342767890
H        -5.74927058364116    3.18438018568532   -3.65304286844670
H        -3.60718625173284    2.36195690538749   -4.55596296676628
H        -2.06802599264893    1.08567820906829   -3.10841939776477
H         1.97966192348721    3.19845858338437    2.94680269554335
H         3.04121498014866    2.08871587852657    4.88038969001572
H         1.64690150541558    0.94198873055370    6.55973454930350
H        -0.78198047552822    0.84892333689165    6.30286950666103
H        -2.67946726202001    0.21028629643702    5.03754149507276
H        -3.02273913571327    1.66531413434928    6.01896504237484
H        -5.34338278388507    0.84135605732340    6.26083825452576

