90
CSD_code = JEJMAM | q = 0 | S = 0 | Stoichiometry = C37H38B9P2RhS3 | MND = 7
Rh        4.33756521940200    9.54577844371278    7.48968982212235
S         2.91732451279097    8.16668083168002    6.20417754631852
S         0.98777720803308    9.25103618985020    8.22298864252298
S         5.65856835878057   10.70967746568548    9.12131919253489
P         6.12816515015439    9.01575681051461    5.91533618330953
P         3.62927523700857   11.70710496405745    6.32752051711535
C         1.39761163201522    8.41272981133406    6.82138716894985
C         6.74565037378771    7.28849168341958    6.01735094478041
C         7.89149794673005    6.88331194100884    5.33955611380888
C         8.31251288971327    5.56842624401709    5.41100151671569
C         7.59668176608186    4.64434467954294    6.15526219954659
C         6.45401846439669    5.04085156770898    6.82842800015318
C         6.03123849913651    6.35653178034434    6.76037656037570
C         5.53467534195776    9.00330219016496    4.18464312925404
C         5.45961078116906   10.19462260876552    3.46597041120146
C         4.91029221032188   10.21849194227782    2.19791037712487
C         4.40937338115508    9.05528920868024    1.63620537745608
C         4.45922821288321    7.87093537511086    2.35223050468753
C         5.01457507925878    7.84273166580194    3.61920647326374
C         7.75577817775912    9.85879833773738    5.77341742313650
C         8.39246817462033   10.12207460101140    6.99001784557951
C         9.65713356111709   10.71968815103974    7.10325930645174
C        10.13054828433892   11.00118406949345    5.85770311455321
C         9.55158876065951   10.74906518974871    4.75386954561125
C         8.35196900239507   10.16281536677534    4.52609534865416
C         2.34826808327880   11.79498187670639    5.01488766341857
C         2.22473761655694   10.71894694226562    4.14406978612688
C         1.29929287330119   10.74344875062166    3.11607307409499
C         0.48296511833063   11.84770626303451    2.94563607515394
C         0.60342618396464   12.92941636648353    3.80372738563409
C         1.53020238500951   12.90815931759409    4.82929636265616
C         4.93805608113521   12.74427263947645    5.56050296264550
C         6.20190705568445   12.71834012150620    6.14468815846057
C         7.24373148385797   13.45471356111034    5.61196118846628
C         7.03719801195232   14.22346465734947    4.47900506436272
C         5.78359304408138   14.25513250535617    3.89081826105108
C         4.73825356765167   13.52258156715331    4.42517512946654
C         2.95333789903599   12.92524755698377    7.51832862518677
C         3.76051512769607   13.86768979282359    8.14465633368403
C         3.23252076813254   14.70553064237214    9.11122776885255
C         1.89964248738360   14.60714132531785    9.47022072176494
C         1.09230396779912   13.65799522355307    8.86357456886218
C         1.61693543694224   12.81628622053137    7.90278875148540
B         4.60306292664896    8.45957189558504   10.92589607688815
B         5.65117634638643    9.88349473719418   10.92510159402134
B         5.50385764018866    8.78763701759834    9.47752037566117
B         3.80575573495234    8.23808811360416    9.34345584608580
B         2.90727376372990    9.00456156352669   10.70258246579817
B         4.03438655407210   10.02458160475288   11.60632280392966
B         2.73767355903315    9.55246236319265    8.99603906024235
B         2.90642107180199   10.78218313961180   10.46665533450796
B         4.58674993070439   11.31827768460225   10.56333624728901
H         2.84867516394569   10.83024105869016    9.14533570205688
H         0.57061520688242    7.98777157757929    6.26883120701316
H         4.87191336174500    7.51613085161821   11.57742620882017
H         6.69503565315236   10.00126490000198   11.45429324682131
H         6.45077407223133    8.18699512279416    9.10516929797248
H         3.53540006669962    7.13187813747795    9.01388841754775
H         2.00984731262874    8.42600237370847   11.20206650682146
H         3.87069473744191   10.22481201025397   12.75499856608385
H         1.99944898618601   11.44635259195453   10.82576116598934
H         4.90523288569563   12.40971294054203   10.87802637218527
H         2.85717096032929    9.85348321087243    4.27320116692632
H         1.21886118952138    9.89670550734810    2.45059654257477
H        -0.24415055731138   11.86917517781848    2.14735183004505
H        -0.02580855380357   13.79769020801766    3.67076882869351
H         1.61959355049173   13.76243567722498    5.48519048974696
H         6.37268037391260   12.10573633549796    7.01843339600586
H         8.21807481082418   13.41594367682752    6.07519391608299
H         7.85044611734150   14.79203765900387    4.05338652293314
H         5.61733804079179   14.85258009503320    3.00601192957670
H         3.77145571600682   13.54943424963544    3.94559067553675
H         4.80279880252260   13.95156234232695    7.87361160582021
H         3.86802301093810   15.43731542817661    9.58733457378874
H         1.49142201503826   15.26204899359518   10.22495950563153
H         0.05392274803600   13.56759761155210    9.14598167630177
H         0.98655625208476   12.06696934863434    7.44122498790523
H         7.88541966525265    9.84119795635488    7.90187520760999
H        10.13925105242974   10.90651320396395    8.04842445259515
H         7.90019679610864    9.93636132455301    3.57568173521093
H         5.83743207701843   11.10592842595594    3.90445713443479
H         4.86659674223172   11.14969950386555    1.65188770041700
H         3.97725170826722    9.07377017271198    0.64655443601388
H         4.06153609955898    6.96266151510291    1.92341919714767
H         5.04151872294374    6.91623163901339    4.17422639648437
H         8.45823931359449    7.59527964375265    4.75736008196700
H         9.20423713028256    5.26318124405123    4.88287031593017
H         7.93106763933518    3.61879043528258    6.20954091753774
H         5.89097277764957    4.32613490459559    7.41008332098105
H         5.14178540712779    6.66713837492792    7.28911381366159

