72
CSD_code = JEJNOE | q = 0 | S = 0 | Stoichiometry = C29H40HfN2 | MND = 9
Hf        7.64099497861716    2.22991529899962   16.25544424305310
C         7.72126505613957    0.12433240624890   15.55829299243809
H         8.76224649888338   -0.19199232197801   15.40776100557195
H         7.20926492240292   -0.01933097895973   14.60044262789724
H         7.28064617906020   -0.59311328235748   16.25907411537816
C         8.44239158462160    1.69719086325459   18.25429701619589
H         9.50889827964587    1.44545906200493   18.18063129216019
H         7.95355672822727    0.83550147692179   18.72140687520507
H         8.36767971792333    2.52673067019404   18.96574152641263
N         8.75224567858097    2.76554436884394   14.36878679835309
C         9.06793137010957    2.21893663110843   13.06432330517723
H         8.35339637760747    1.40407865754848   12.89126549842471
H        10.07398615640378    1.77023388323054   13.06384600839552
C         8.95428567238194    3.18391077222134   11.90194617070741
C         8.41567098978817    4.43011899346393   12.08510826686246
H         8.07687001938765    4.71053082399175   13.06970428518474
C         8.29768596794233    5.34324555833022   11.02867733405527
H         7.86945760326106    6.31734972077445   11.21711653264164
C         8.72311126142025    5.00174705249925    9.77795492600633
H         8.64414311159060    5.69816272937787    8.95547669387570
C         9.26763092907983    3.72328861124794    9.53456666876610
C         9.69391333351819    3.34785501489976    8.24345775202395
H         9.60391044053007    4.06812168741066    7.44237750446629
C        10.20379375174479    2.10364316058054    8.00447266361625
H        10.52576101682367    1.82326560206362    7.01226386224764
C        10.30698882735999    1.17872446003518    9.05303255941401
H        10.70451682158520    0.19393993570475    8.85427563011035
C         9.90758129329879    1.51369083022845   10.31708721267910
H         9.98927185912259    0.78373368968601   11.10761974019156
C         9.38116103970435    2.79238792852848   10.60320251958306
N         9.19563932991937    3.87631229635928   16.23379176319002
C         9.58854202716171    3.57440538570769   15.00753816048209
C        10.87412844404101    4.10570984130643   14.41199387531586
H        11.03017949826490    3.66296559946513   13.42903278649564
H        11.70626043463895    3.79891763244283   15.05375844363770
C        10.89211929918002    5.63181087554949   14.26105555629436
H        11.65439508674019    5.89282864578760   13.52219088919406
H         9.93132906869439    5.96993418563082   13.86885664249521
C        11.20645018828370    6.36960356911742   15.55884625232152
H        12.17710282812124    6.03523392991480   15.93577537188482
H        11.28879370274563    7.43854439413894   15.34399346964608
C        10.15311884882723    6.16174264138058   16.64224001188410
H         9.18107235032768    6.50678946027777   16.28297059062817
H        10.42116267639752    6.76869742698132   17.51050700692083
C        10.02645814744028    4.69849408729439   17.09058404684589
H        11.03601201832634    4.27062200351101   17.19369146503179
H         9.55954669081790    4.67652270317436   18.08031027373499
C         6.00933170938093    4.06441102373706   15.73823580940568
C         5.51885557317984    2.90287911445843   15.08645708688971
C         5.12238109628572    1.97625770965856   16.08973571972657
C         5.39038289813829    2.55610978275905   17.35720856005815
C         5.95075714829661    3.84365234352647   17.13963491690655
C         6.30809626832557    5.39313404041435   15.09887784716070
H         6.03442086617561    5.38151396510880   14.04618665263137
H         7.36277618957555    5.66192749183630   15.18461770879089
H         5.72817063186517    6.17888264930211   15.58694060854051
C         5.26588098032846    2.76431112727730   13.60876980963875
H         4.33385081560727    3.26352973288255   13.33066196729818
H         5.17388608462109    1.71728376166174   13.32578792624632
H         6.07092494694918    3.20389069124685   13.02159520954573
C         4.34410294715467    0.70825218464409   15.87336286687222
H         3.27178870331933    0.90832565299251   15.93870194889052
H         4.58741372169179   -0.03795759503593   16.62784251096216
H         4.54152613798979    0.28030463184518   14.89316034814406
C         4.95941946884206    1.98212861015758   18.67817622952914
H         5.52534895458487    2.41381409221166   19.50046408465703
H         5.09183948537185    0.90123261932223   18.70141869513862
H         3.90147398880305    2.19031572050018   18.85513561279283
C         6.22630315542593    4.89199562712833   18.18291948280119
H         5.35650798029499    5.54260960634425   18.30926450779298
H         7.07069550144431    5.51624593277192   17.89437967547232
H         6.44289663967701    4.44181149909668   19.15007398100601

