75
CSD_code = JEJPUK | q = 0 | S = 0 | Stoichiometry = C36H32N4P2Pt | MND = 4
Pt       -5.38176858092177    0.57673735535575   10.10668124399919
C        -4.18529285715114    3.19356552849098   11.26282958491246
H        -5.20690094078568    3.53697663854921   11.15683275614900
C        -3.22838430768593    4.04471817447828   11.75593038138430
H        -3.48988463122056    5.05615200563173   12.02258888741153
C        -1.91321481390585    3.57645777008772   11.89982584847967
C        -0.81774279524032    4.47520367173636   12.38069651323090
H        -1.19922443458447    5.46681763629037   12.61078405362042
H        -0.04508986235327    4.56525484296353   11.61825313921585
H        -0.35417038206282    4.06010925231598   13.27413033615537
C        -1.67115825725103    2.25874962415482   11.60661096256916
H        -0.69371154385188    1.82233496114154   11.73721053441272
C        -2.70193809887527    1.40567846836447   11.15357652443665
C        -4.16096990845657   -1.69471872643303   12.25119235425701
C        -3.39153179853505   -2.70855009793632   12.80590261446236
H        -2.49791298239861   -3.03816193753276   12.29438049498100
C        -3.77803972762335   -3.28280458339337   14.00390704763672
H        -3.18684468982862   -4.07747022738526   14.43603131360383
C        -4.92167597269146   -2.84254777110508   14.65149932904522
H        -5.22224006214670   -3.29990241010508   15.58290695459428
C        -5.67651065719992   -1.81246128123128   14.11291119809669
H        -6.56196677451330   -1.46443816391373   14.62424020634642
C        -5.29278976639991   -1.23791630892663   12.91662534229136
H        -5.87184678091792   -0.42539866820815   12.47083419502230
C        -3.14265997546940   -2.11859577979531    9.56340005325538
C        -2.25695214385814   -1.74076817283925    8.56067534447251
H        -1.87154096575877   -0.73071674274612    8.56330155976873
C        -1.87370660140059   -2.65108604574707    7.59382866847220
H        -1.18212702857421   -2.35773921283512    6.81709192939966
C        -2.38152349192774   -3.93992943141659    7.61786813246032
H        -2.09054219668182   -4.64988607067875    6.85744950193765
C        -3.25791005573126   -4.32234958047007    8.62086678132355
H        -3.64472895050851   -5.33125209787190    8.64280694718678
C        -3.64003451367336   -3.41564926090449    9.59193524033819
H        -4.31367840306282   -3.70839669757829   10.38449262914771
N        -3.94327962768602    1.92971290305850   10.90829187675737
N        -2.43415656546388    0.11086163051252   10.98134201079716
P        -3.72732676234888   -0.83956760013850   10.70180544236298
C        -6.57953079520953    3.19486744827779    8.95540127598900
H        -5.55855736419440    3.53927033760596    9.06415720778531
C        -7.53628161064963    4.04577186721024    8.46160285381827
H        -7.27531733127719    5.05797637908915    8.19734983286170
C        -8.85049519696183    3.57614917389650    8.31349910706322
C        -9.94572451752231    4.47429359645958    7.83099667944393
H        -9.56358532343964    5.46476464704421    7.59709533621877
H       -10.71710276511024    4.56778932420709    8.59436075451972
H       -10.41109664111249    4.05660367969736    6.93973693324893
C        -9.09182338081288    2.25781930614790    8.60447410392179
H       -10.06840593274615    1.82042093637504    8.47073201553488
C        -8.06131725255339    1.40533522556819    9.05923384792606
C        -6.60319616386617   -1.69639322591916    7.96168544137773
C        -7.37491141298690   -2.70921339235711    7.40823823951724
H        -8.26871566909150   -3.03681456969808    7.92073071644572
C        -6.99039024661618   -3.28494988198679    6.21033370821167
H        -7.58339009748286   -4.07878628007571    5.77914403824752
C        -5.84639934582282   -2.84717806543868    5.56165855062407
H        -5.54737665846131   -3.30569402529521    4.63031998351831
C        -5.08929338198520   -1.81811632783414    6.09902005664934
H        -4.20358014201117   -1.47208843672748    5.58678623701029
C        -5.47109852384728   -1.24198814999626    7.29518997342399
H        -4.89043841530457   -0.43022113793021    7.74003214327927
C        -7.62008797763250   -2.11894567905646   10.64911575988690
C        -8.50712911898607   -1.74214446733826   11.65101298019389
H        -8.89293154604088   -0.73224230173406   11.64867264964097
C        -8.89137546365238   -2.65339027608534   12.61662250756305
H        -9.58415700224603   -2.36092304059909   13.39262149360612
C        -8.38324159418418   -3.94209784537722   12.59218629497987
H        -8.67524990208723   -4.65283453208243   13.35149143759750
C        -7.50527739365967   -4.32341745575251   11.59013980145048
H        -7.11813362249058   -5.33219396407947   11.56787991475642
C        -7.12218279463197   -3.41580661420991   10.62031749603963
H        -6.44743968249501   -3.70770294602866    9.82838011397099
N        -6.82088710019886    1.93017381313694    9.30736641998230
N        -8.32858429298657    0.11025991059153    9.23026378985897
P        -7.03541643091627   -0.83987662365851    9.51061236986543

