49
CSD_code = JEJREY | q = 0 | S = 0 | Stoichiometry = C22H18FeN6S2 | MND = 6
Fe        3.33804971281156   -0.00160038556523    7.74715999147892
S         5.20478956641459    3.17620842518408    5.26293109787092
N         3.33151461842883   -0.53061603550341    5.92682656807204
N         1.78191327028406    1.27602780586904    7.15751484627298
H         1.92228944507273    2.24539530491095    7.43833302666629
N         4.60475760765588    1.35214178266543    7.24677219174065
C         4.12886780370986   -1.41508949370507    5.35541262526060
H         4.73487482461916   -1.99265323349233    6.03617595156319
C         4.21835497243952   -1.59145535437899    3.97242569469353
H         4.89766537826279   -2.33226086725049    3.58168637103209
C         3.46345609584773   -0.81097073280708    3.13295163780037
H         3.52533805892800   -0.90849882548172    2.06004366902079
C         2.60788359735184    0.15758978697717    3.69795967163947
C         2.56929933078629    0.25340579915906    5.11134193063254
C         1.82298961118014    1.04951525849760    2.94003186149329
H         1.85954918648129    0.98303348329785    1.86329115931529
C         1.05353340056569    2.00099863877523    3.55386086555035
H         0.47556720374228    2.69593915398341    2.96436105035273
C         1.01751920278465    2.09740112379505    4.95046680347537
H         0.42400082290012    2.86983550044464    5.41859472807574
C         1.75492374034324    1.22895647639086    5.71742922845629
C         0.55508806010630    0.76537527610288    7.78354998744203
H        -0.34569328812906    1.15772009012398    7.29359118256894
H         0.55009683902644    1.07705657598166    8.83069795237490
C         4.86600856148172    2.10359763898173    6.37970378195850
N         3.33188897507627    0.52776669216106    9.56770397080864
N         1.77867051708620   -1.27675840128991    8.33755906061869
H         1.91498046513338   -2.24640596961521    8.05583954760472
C         4.13029982285585    1.41140012116059   10.13892119357411
H         4.73709390473646    1.98802892893293    9.45805235853725
C         4.21984479628014    1.58818998087677   11.52185043143185
H         4.89987714528378    2.32845287754441   11.91234573857355
C         3.46409831389034    0.80874493041189   12.36149657147108
H         3.52592027983934    0.90660277836813   13.43437522732083
C         2.60776776096597   -0.15928491881050   11.79674215608712
C         2.56892637271207   -0.25532136724950   10.38337853829778
C         1.82243429616522   -1.05052211027937   12.55502077025294
H         1.85911118109790   -0.98368676841699   13.63173322537742
C         1.05248457786746   -2.00183320271839   11.94155374554959
H         0.47426705789240   -2.69636605676876   12.53129228603884
C         1.01600453392055   -2.09829294861081   10.54496243736759
H         0.42178629625241   -2.87033407101453   10.07704281882885
C         1.75351817414403   -1.23023077546950    9.77763932183159
C         0.55239229677881   -0.76150501282436    7.71395084396353
H        -0.34871783488698   -1.15072313953020    8.20582940495472
H         0.54410592463958   -1.07307003961486    6.66679273079291
S         5.22435769267597   -3.15767076448231   10.24600726838525
N         4.60353766448482   -1.35630215599917    8.24792982829341
C         4.87331216201384   -2.09793179971321    9.12086664923776

