49
CSD_code = JEJSEZ | q = 0 | S = 0 | Stoichiometry = C22H18N6NiS2 | MND = 6
Ni       -1.05819537891746    7.62378927404871   19.29247074217681
S         1.03862240459014    5.36723552186117   22.28303995155158
N        -1.42501926130122    6.73977017908236   17.21593014520999
N        -2.54335612255255    8.82898580376757   18.59811955514856
H        -2.36288100498906    9.79075109627189   18.88744326657698
N         0.21421562382023    6.44303030202651   19.87910273866769
C        -0.77660275824378    5.78866092477180   16.59155027202923
H        -0.33853664620725    5.02104924185928   17.21671393736727
C        -0.63124616352763    5.73535860685185   15.19506171250411
H        -0.07357707041482    4.92743570741064   14.74813744418259
C        -1.20302420559748    6.71362218139935   14.42893268171759
H        -1.11946851102874    6.70849116232282   13.35169034437947
C        -1.89894339939416    7.76529041973826   15.06202860610253
C        -1.97169656561533    7.73660539573617   16.47730506060518
C        -2.47601409395582    8.84464363745709   14.36467974065835
H        -2.41088330041920    8.86265798711789   13.28705814108256
C        -3.07342833412886    9.86722327683898   15.04709080709968
H        -3.49591661335287   10.70546636893879   14.51432237717214
C        -3.11411282619961    9.86093307980350   16.44874700471951
H        -3.54676979283756   10.70511728229271   16.96866258895192
C        -2.58198285970561    8.81733305322477   17.16167761510743
C        -3.78900085264943    8.38362347681135   19.24323050929595
H        -4.67305231207941    8.72456151437129   18.68621399056329
H        -3.82311603230890    8.80797282884488   20.24972707216966
C         0.55507964631498    6.04015181185213   20.93515963784190
N        -1.42486729036673    8.50694269958849   21.36937159340171
N        -2.54252360841717    6.41689927995988   19.98804005414725
H        -2.36158956196895    5.45517856819201   19.69886006343246
C        -0.77734301259520    9.45892608266549   21.99332978343387
H        -0.33942848562531   10.22627839962496   21.36774280418068
C        -0.63282125346583    9.51340738600486   23.38984970792579
H        -0.07613271477897   10.32215886338834   23.83650660969599
C        -1.20413695612173    8.53516772832476   24.15638327226587
H        -1.12114597217000    8.54116420704138   25.23366966683456
C        -1.89887636474042    7.48247105694411   23.52370939883619
C        -1.97125289367034    7.51027631654710   22.10839286302729
C        -2.47521763818937    6.40301127080120   24.22150668730312
H        -2.41037416562726    6.38568211251007   25.29915792696134
C        -3.07153339118132    5.37953617739668   23.53949151707888
H        -3.49323518520056    4.54113238657977   24.07262240837686
C        -3.11215802226416    5.38515738126338   22.13783560445254
H        -3.54404718914112    4.54035831218096   21.61829037173038
C        -2.58086884081942    6.42887188101598   21.42446286506409
C        -3.78853314719883    6.86146802407231   19.34311083810832
H        -4.67232004830351    6.51996335600167   19.90020785863318
H        -3.82247209049629    6.43712000340146   18.33660572000101
S         1.05599382114240    9.85459786786122   16.29391433839561
N         0.21280528327868    8.80616841743785   18.70353506154945
C         0.56158515859867    9.19750208648581   17.64560704228643

