49
CSD_code = JEJSOJ | q = 0 | S = 0 | Stoichiometry = C22H18N6NiSe2 | MND = 6
Se        9.25736479389393    1.82037818398748   14.92353858017638
Se        4.44277645367370    4.43409738916700    9.07656405037973
Ni        7.56193695191270    4.83216113708603   12.17734315717155
N         8.49700849060605    5.04307652445850   10.10131063893173
N         7.01506807322538    6.72765171680304   11.68387141278645
H         6.05679051350108    6.90053547030697   11.99058825289601
N         9.24577510259125    5.66814399745215   12.95731910914440
H        10.06816550604405    5.16714604092205   12.61832211094846
N         6.89648599918198    5.26750398354814   14.32115900703601
N         8.16220996824068    3.15717690983361   12.60120048646178
N         5.99007762036768    4.17340934837542   11.50923010551806
C         7.04465766031962    6.92126831448556   10.25833286842841
C         6.30199575727581    7.90158445161962    9.65207176119359
H         5.69316808077906    8.56605184571677   10.25012880044671
C         6.29148772464464    8.03300414450905    8.25606467243567
H         5.69099153856351    8.80954428884969    7.80768849103902
C         7.00207038423353    7.16835835652342    7.47132734176558
H         6.96941533197387    7.24449365708761    6.39481717528630
C         7.76108231243022    6.13576806000549    8.05630100990412
C         7.80254046064668    6.02112309859159    9.46867837076651
C         8.46140971743219    5.16562292277067    7.30841415460139
H         8.44256108903321    5.21571866859532    6.22930350712719
C         9.13102055471061    4.17063360826462    7.96619833186503
H         9.65968886189093    3.39986912070287    7.42793603710050
C         9.12471126751451    4.15540973844693    9.37106746831647
H         9.65303671238309    3.38027117696495    9.91153582658449
C         9.31055497160752    7.04906156382787   12.44951255131962
H         9.70421637845805    7.02190852638143   11.43037490038180
H         9.97185819702321    7.67196342123613   13.06747048551543
C         7.90370085975693    7.63682742420754   12.42745798882556
H         7.53250970453891    7.71781043661564   13.45216726674199
H         7.91858858161140    8.63869288104192   11.97668969846556
C         9.25492032223993    5.57470379189960   14.39316659142088
C        10.42398085363616    5.62635926718193   15.10788828518277
H        11.36592384124985    5.76248624242691   14.59401927209307
C        10.42011081665185    5.46813937701602   16.50113204035933
H        11.35706680323805    5.50659392765690   17.03526811802261
C         9.25183671403315    5.23279409783023   17.17054940962144
H         9.24852489159429    5.07656591494554   18.23887451513777
C         8.03303074682967    5.15219959225737   16.46873878294481
C         8.02789490053463    5.34684688774929   15.06452312583688
C         6.80087134466764    4.84295086325034   17.08280915002549
H         6.76941212800997    4.67745388889962   18.15003557163246
C         5.67716510587676    4.73836257456836   16.30987740741135
H         4.72205448904586    4.48279379825418   16.74084308280399
C         5.77501624655497    4.96697148709237   14.92709521895137
H         4.89701383598366    4.89507434246216   14.29777841497870
C         8.56812019762267    2.62680993633013   13.56881606666759
C         5.39963114218625    4.26522760178821   10.49669932735095

