49
CSD_code = JEJSAV | q = 0 | S = 0 | Stoichiometry = C22H18N6NiS2 | MND = 6
Ni        2.97505330201696   10.12045371834730   20.29605340878686
S         4.20982601783435   13.05591534573788   17.41888372632716
S         0.09424262527223   10.91155861849075   23.37895831186882
N         3.96037063052159    9.98208194898709   22.42195710763529
N         2.49596561269391    8.20368745922522   20.90882344031007
H         1.54355633965526    7.99603437797250   20.60770156362525
N         4.69819976671936    9.26370693284039   19.53439484316089
H         5.49915077940318    9.81059837672539   19.85103096601290
N         2.33770125123000    9.48944037917269   18.12757822505776
N         3.52825838860929   11.78392676710237   19.77179322362085
N         1.38823506871573   10.76113566412138   20.94535050087129
C         2.52834499926521    8.08106308260883   22.33985304259974
C         1.79224189488080    7.12420498422714   22.99079496345536
H         1.19009279133857    6.42800899470691   22.42251831985791
C         1.78169404288019    7.05313326163905   24.39111196132351
H         1.18873420535920    6.29070898255514   24.87288700549344
C         2.48708019910966    7.95488022727172   25.13752518197433
H         2.45815997289580    7.92291296436457   26.21642363872759
C         3.23684047499243    8.96729292966689   24.50737694348713
C         3.27650058890151    9.02285236531137   23.09096930918705
C         3.93037914572595    9.97270342932236   25.21386910079632
H         3.91418999292734    9.96546670825702   26.29430001993746
C         4.59007478141552   10.94681548521183   24.51621089410887
H         5.11316152489257   11.74278403049675   25.02240410947955
C         4.57823565259951   10.90640297845520   23.11165254285950
H         5.09387721081426   11.66514542086628   22.53712668980362
C         4.79855812861959    7.91902542841195   20.12484477036562
H         5.20067754185460    8.01972640711393   21.13586591438790
H         5.46975794063008    7.27446725862546   19.53982145833273
C         3.40980805637701    7.29141942571162   20.20160076754083
H         3.02849724667608    7.14466412499102   19.18815360422066
H         3.46665170658724    6.31493983596032   20.70301575511050
C         4.71010555844455    9.28180270872111   18.09773791507545
C         5.88689087242109    9.24751752134570   17.39403569766587
H         6.82873127135580    9.18076133358856   17.92197538361297
C         5.89167229816712    9.33087829444280   15.99438857051909
H         6.83523361822703    9.30476260407142   15.47094203937266
C         4.72122370630496    9.47505817504623   15.30369895983947
H         4.72126424208969    9.57097437109691   14.22820516901578
C         3.49328733661121    9.53778531642097   15.99109325329241
C         3.48096375300173    9.41923088191546   17.40417889997413
C         2.25583315443935    9.75680140040152   15.34942335267362
H         2.23016176425224    9.86149361129818   14.27422822017640
C         1.11897267417520    9.85344448105593   16.10377008400441
H         0.15886368742445   10.04159570031249   15.64962808037079
C         1.21154304913960    9.70801609946303   17.49836800652042
H         0.32571898917746    9.77784917372037   18.11648604675242
C         3.77120535312191   12.29707490841807   18.73631603460726
C         0.89241079022973   10.84049550419336   22.01427297620522

