47
CSD_code = JEKFOV | q = 0 | S = 0 | Stoichiometry = C20H18N4NiO4 | MND = 4
C         3.08099838101323    4.88933661912422    0.70991559920942
C         3.27006860119043    4.41848343308227   -0.58707911026327
H         2.65143032370667    4.80574613677348   -1.38147509544189
C         4.23833013365259    3.46707675329155   -0.84669616217349
H         4.38103882647071    3.10409095220264   -1.85416733167574
C         5.02528785041264    2.97868411033384    0.18389977901317
H         5.78168264182399    2.23509845172029   -0.02079626472887
C         4.84135269144746    3.44442767300640    1.47682547402288
H         5.45588512845727    3.06252171873019    2.27873138431332
C         3.87465116092504    4.39508556284326    1.74284784975024
H         3.71223891152122    4.77219692104491    2.73920222624369
C         2.04358905091626    5.90784137205444    0.99248761385243
C         1.03909831151440    7.16812960917024    2.61731682247567
C        -0.60097289917158    8.70193463620015    2.73680216834569
H        -1.66257566233434    8.44664692381891    2.67825943766064
H        -0.46874748871438    9.73926302804346    2.41716201794848
C        -0.00911779344162    8.43862025435614    4.13536940988737
H         0.45008835880667    9.32767073933555    4.57737742334585
H        -0.74158232817395    8.02843221249270    4.83683272360327
N         1.94193367185761    6.26324058780232    2.25953446608685
N         0.17288124114248    7.81409344851218    1.87692702347008
Ni       -0.00000472415164    7.59299487054206    0.00000108975658
O         1.35563521524204    6.34300419874216    0.01987747926495
O         1.00470203715702    7.46646479893697    3.92429078114036
C        -3.08094645724859   10.29671928687083   -0.70992653190057
C        -3.26998938465363   10.76760138744046    0.58706143240407
H        -2.65134830623796   10.38034146757025    1.38145677762956
C        -4.23823018667856   11.71903074095331    0.84667365464605
H        -4.38091921842955   12.08203716262287    1.85413999633930
C        -5.02519308184927   12.20741828507582   -0.18392052257258
H        -5.78157218479028   12.95102095851661    0.02077178697125
C        -4.84128231080644   11.74164887320808   -1.47684041153237
H        -5.45581691586069   12.12355290912832   -2.27874590375894
C        -3.87460232969714   10.79096770032144   -1.74285780969698
H        -3.71221024766391   10.41383478763756   -2.73920725594038
C        -2.04357083030536    9.27817818179103   -0.99249123860251
C        -1.03913624891662    8.01782961192729   -2.61730841779775
C         0.60090495844613    6.48399205933066   -2.73678770166312
H         1.66250919011973    6.73929269485751   -2.67831862632322
H         0.46870652843445    5.44668142940312   -2.41708010788251
C         0.00897157364789    6.74722174973726   -4.13533752287302
H        -0.45030104546039    5.85815444348163   -4.57724363951726
H         0.74140612364443    7.15732259070626   -4.83688182541786
N        -1.94193401110580    8.92275929055631   -2.25953414649370
N        -0.17290615472066    7.37187974574402   -1.87692174630579
O        -1.35563632785501    8.84299415094750   -0.01987691495732
O        -1.00479477328223    7.71943548001181   -3.92427012986243

