153
CSD_code = JEKGEO | q = 0 | S = 0 | Stoichiometry = C66H70N4O12Zn | MND = 4
Zn        1.18594911726086   10.56912312767400   14.49205188957918
N         1.15641041886769    9.55071281265743   12.80380053853118
N         1.65318919758694    9.18704950149956   15.82741758345795
N        -0.49940210057336   11.56706980996163   14.21052481550679
N         2.46859795178578   11.92801328410852   15.11052560041141
O        -0.65036737707921   15.45526894027938   10.78449385989754
O         6.62500855153653    7.16551784731820   15.15611157650176
C         1.82905362065038   13.79384391174292   13.67746024693262
O         0.88845322001979   14.63442999679053   19.74190617265790
O         6.40757908999201    5.72806822637335   17.73434585194845
C         1.91671324938548    8.52225264888117   12.41745334289417
C         1.29221503672356    7.90276544824528   15.89490469319458
C         2.59407885805200   13.21075085122129   14.76341905175915
O         5.95148243174244   13.11684519702088   19.21656974415589
C        -1.01478491343741   12.60959689453841   14.86856089883670
C         3.28668408433193   11.72154375025759   16.19974090877628
C         3.14698615590722    8.15883451347316   13.09220843914494
O        -2.43478095671650   14.86765912751916    7.72779824136142
C         1.56019185673552   13.07637936032698   12.51559877222943
H         2.00678492151442   12.10289264726643   12.37263957459550
C         3.97893597282252   12.92967688677734   16.49423933729331
H         4.70973968910205   13.03986705928709   17.27254900316709
C        -0.51234747389933   13.08500114323672   16.14091759006286
C         0.26622260857651    7.34063221446666   15.03772800573588
C         3.52149013998439   13.86951086647271   15.60989538589759
H         3.81752439129625   14.89796244817191   15.52620733220082
C         3.96116938416740    9.11958153135312   13.69603707514128
H         3.70887438424648   10.16561581014670   13.60841230551273
C         2.66095228433551    9.37195325806007   16.74712522721568
C         0.48426202748472   14.05570044876665   18.57949510242100
C         5.09979276732888    8.75163702196576   14.37422916619283
H         5.72896735999215    9.49118837827256   14.84414501851251
C        -1.22162564576268   11.42697225346518   13.04586008061802
C         1.30210470989900   15.08177710608623   13.80030832104521
H         1.50659936826385   15.65519989570203   14.69173861274945
O        -4.61762113720829   13.40012338470060    6.49200254285972
C         3.54135318851122    6.82475333409610   13.16248184885107
H         2.92838558317296    6.06608368992828   12.69965074395096
C         0.11099830965145   12.23642545986447   17.05302560677986
H         0.17967206889024   11.17965136963434   16.83924976019389
C         1.34664522514105    7.87640438954945   11.29163561781486
H         1.76356700764402    7.03498799081968   10.77287488468913
C         0.61574566215377   12.70921627028743   18.24898377474205
H         1.10149404968070   12.01428489838408   18.91636579178816
O        -2.46474306412290    5.73021037995132   12.34663122086299
C         0.18887996222799   14.85915594243726   11.67706913059422
C         0.75387200379743   13.59799344146672   11.52191249654190
H         0.56897455539845   13.01011051148947   10.63696748804630
C         2.05107733122899    7.22219112307584   16.87917059970158
H         1.93607870711065    6.18822792135169   17.14658736868773
C         0.07729628458959    9.59850122967878   11.95274792328073
C         5.47321748945760    7.40930214958771   14.46664423258592
C        -2.10183311150793   13.16798210105710   14.14421997229602
H        -2.70418944962740   13.99807716793947   14.45786109642933
O         3.80381617215475   15.04424732254282   20.29235632606765
C         0.20484041951807    8.56517970794754   10.98435231032903
H        -0.48559642287443    8.37182258403894   10.18497607520409
C        -0.64169421412078   14.43557364477290   16.48229049001966
H        -1.10856037432005   15.11679935390887   15.78786924979395
C        -1.62376521720537    6.31027607581704   13.25021090090078
C         4.68490280276654    6.44795875581715   13.84023655008138
H         4.94963286153910    5.40194322065997   13.87059770149021
C        -2.24650200286910   12.41481054386266   13.01390604531703
H        -2.96956593510134   12.53478515834171   12.22927240815310
C         0.48941877021154   15.60287924935214   12.82052538348305
H         0.05826687292247   16.58700920318652   12.91721686373964
C         0.39478677851475    6.04441637759652   14.53277020816669
H         1.24887959308636    5.44764640373754   14.81572141647571
C        -0.53055423337241    5.53889295642709   13.64939112860590
H        -0.42838133766122    4.54701399500358   13.23754877707968
C         2.89069159343730    8.14985121143070   17.43685118049627
H         3.59452753450266    8.01767016020557   18.23606289765330
C        -1.04132488139149   14.72813467849327    9.64242929200930
H        -1.48353936218786   13.76393964583138    9.92169179471076
H        -0.18585393704355   14.54541895657525    8.97922197412691
C         3.37693900487052   10.54617482068270   16.92742302489624
H         4.09464875095671   10.54441723389180   17.73907923698999
C        -0.85109148110156    8.08457612619353   14.67037641277247
H        -1.00440844820878    9.06453525898306   15.09875044958893
C        -0.15488648697503   14.91052043634784   17.67652796414315
H        -0.25125035085397   15.95093184440059   17.94508678916903
C        -1.78840197165705    7.58144427372017   13.78884559275733
H        -2.63937159618474    8.19140674703194   13.52983530121837
O         5.52364236150681    7.67706535065430   19.83246922206364
C         1.72981038905313   13.92425714773990   20.62028726891960
H         1.32119648271517   12.93318488613937   20.84915427131664
H         1.74903831998641   14.52512586384488   21.53235623415437
C        -2.08305779173342   15.55963026462170    8.89956996767592
H        -2.96118419830680   15.70645983461026    9.54542360702627
H        -1.66535606538069   16.54993377701695    8.66106087351344
O        -5.91882803036477    8.91136365673525    7.74015457137625
C        -0.97544409508119   10.49663165097640   12.04985870251069
H        -1.69695951285578   10.46913910991530   11.24116955438191
C        -3.94778998536906   14.49571824123017    5.92615436320314
H        -4.60587982665080   15.03098252797612    5.22243001472184
C         6.99793100198733    5.83824913065833   15.43303805072743
H         8.00748343004110    5.91229976255277   15.84358431075660
H         7.02507111712562    5.23212071217314   14.51911540033802
C         6.98699474182471   12.21035030176549   19.53804064044047
H         7.06408972948890   12.10173991285616   20.63088235134201
H         7.94814477635824   12.60819592278513   19.16710487306760
C        -3.52850581175119   15.43629495362975    7.04900061471380
H        -3.25338783977501   16.41749134552119    6.63116191093723
H        -4.37652872924309   15.56905623277554    7.73536564784112
C         3.15946218027127   13.80290320324093   20.08688842301645
H         3.68771682553733   12.99864160209282   20.61651738067762
H         3.13882029206212   13.55765188733578   19.01730110921034
C         6.12379681509229   14.38153069272133   19.81055801607842
H         7.04517040277688   14.85142662022609   19.43121211477369
H         6.21235580135824   14.28193368160525   20.90314861283654
O        -5.28472237712827    6.29507765821649   10.12175006858966
C         6.09467914363625    5.17928279836791   16.47909194295307
H         5.03960433640784    5.37425848750903   16.23765203728507
H         6.25853802221328    4.08958687869452   16.48260622694070
C         6.42130547869579    8.39337299685973   18.99503543031819
H         6.03512156175989    8.45488719555023   17.97019026187518
C         4.92367115226509   15.27502872854417   19.48036439472286
H         5.19639155889490   16.31703390407686   19.66306448871372
H         4.66715281713130   15.14482033222291   18.42017520677568
C         6.70851208508038   10.88460304017832   18.90120262871917
H         6.58394833074205   10.90375288801006   17.82795192376516
C         5.43293266821158    5.48471229330915   18.72158647958618
H         4.43794198190996    5.77340486792186   18.35455426306359
H         5.41259790449479    4.41467922524697   18.98344633642479
C        -3.49569896336543    6.51748177085247   11.79607699265061
H        -4.24876758757246    6.77024190706771   12.55503553923070
H        -3.08013018994674    7.44598795146612   11.38253359605977
C         5.77607783321314    6.30570259703570   19.96765438916827
H         5.14229497466140    5.97442868308299   20.79439469317362
H         6.83084412810321    6.12766256389583   20.22199909166449
C         6.63251264930028    9.75412649543729   19.58258255737841
H         6.74348319117361    9.75548458092590   20.65904876073424
C        -4.96601049094955   12.39986651826436    5.55854259987264
H        -4.08452030348505   12.14380575725553    4.94488353487688
H        -5.75748401058026   12.76237580859630    4.88295913104441
C        -6.95346817403823    9.31920888990321    6.87818864163631
H        -7.87058005266371    9.53276016700141    7.45529744324276
H        -7.19849662745740    8.50915347641429    6.16855586268527
C        -6.23028437671261    7.76774201295594    8.49475673864895
H        -6.47523627402460    6.91737056339715    7.84080480730565
H        -7.09159061557997    7.95002741476050    9.15424213022712
C        -5.40963880055835   11.18698633693066    6.31158243183917
H        -4.72491005154674   10.84585305965541    7.07199492300840
C        -4.15327393381668    5.68451222594578   10.68770709066196
H        -4.50666179499485    4.74371615046639   11.11556708599706
H        -3.40108617425448    5.46240262736553    9.91677086939276
C        -5.00301438606262    7.43336475307922    9.33735947594977
H        -4.15214492001856    7.24169126107635    8.66900754333060
H        -4.76247086250034    8.30291983956009    9.96310364945062
C        -6.54752172973924   10.54458577586068    6.11742478291639
H        -7.26259119117099   10.86810379899861    5.37284794614975
H         7.38560387438839    7.86715063127825   18.95627146043233
H        -3.05069053377807   14.16145389097107    5.38410122175914

