76
CSD_code = JEKJAN | q = 0 | S = 0 | Stoichiometry = C34H36B2ClCuP2 | MND = 3
B         5.16437267487614    6.11695931617742   12.48429818828672
B         5.42587063314556    7.65318339253357   12.32599014942660
Cu        6.95321590755233    6.56382636082957   11.64496988757016
Cl        8.56451105436134    5.80026392284186   10.35903364423520
P         5.66247562287639    8.72280221222551   13.87727863407556
P         4.88739915669439    4.94773032573056   11.02052034327074
C         7.50324908280726    4.97975681515480   14.11906888179192
H         7.65918094034791    5.48280800947359   13.16367506176320
C         6.16985638670518    4.81385991817533   14.57958462931096
C         5.05279170423918    5.29306893614108   13.85596450844520
C         3.77243767347038    5.04584872283653   14.40368284369695
C         2.59298608586675    5.51903391680378   13.77152158468053
H         2.70557727313240    6.09293781297226   12.86596347740831
C         1.35183114419691    5.27554947706566   14.27536916280585
H         0.47404837293494    5.64962344200666   13.76797323148306
C         1.19709508303860    4.53733454076548   15.46567878426878
H         0.20540885986714    4.34656560805401   15.84938808013527
C         3.60423152716953    4.32519958393229   15.62784405186843
C         2.29714049899498    4.08303185191447   16.12371919866709
H         2.19926193186012    3.52543129519385   17.04488170285224
C         6.00404754487730    4.11749346900908   15.82143730446155
C         4.72667680959338    3.88028635069987   16.31508955174584
H         4.60529656683795    3.34047617307600   17.24418256613229
C         7.14689599148680    3.66672581524004   16.53204804281720
H         6.98851286292690    3.15216010579889   17.46976390943238
C         8.40319550409160    3.86733163119929   16.05226307593187
H         9.26655680940351    3.51782758474993   16.59915870856209
C         8.57921352329146    4.52850310431777   14.82024582421579
H         9.57516033848566    4.66939867687261   14.42838864106518
C         5.96734394224972    3.47602575639259   11.13493950598069
H         5.68800800905179    2.72819340770802   10.39394473946317
H         5.89495704525346    3.04439271948416   12.13217567394255
H         6.99505580697728    3.79623712938230   10.95687808647156
C         3.22293184492047    4.16657408714148   10.85662546393070
H         3.23101494618440    3.41376897529977   10.06989959682896
H         2.48947993351584    4.93180662755675   10.61063915627248
H         2.94258091692997    3.70030474156424   11.79883512783622
C         5.18775213645526    5.53011954447638    9.31527627136242
H         4.98972529743133    4.72090891741122    8.61308419408340
H         6.23206069179550    5.83163771111189    9.22783580016401
H         4.54555423776870    6.37581702996731    9.08225212512421
C         7.00172411612300    8.35970902682464   15.08398549277929
H         6.93540799804972    9.01953683672901   15.94695894061727
H         7.97282936292392    8.48322099052018   14.61053051298493
H         6.90716341188145    7.32617360720734   15.40966257726012
C         5.81302379717971   10.52781445591805   13.59901423049236
H         5.75872171308271   11.06711228847194   14.54300859171066
H         4.99920912865788   10.84790903434680   12.95122094299706
H         6.75424026018555   10.75263818457895   13.10353589065151
C         4.18135232150723    8.63650362146620   14.96072737390662
H         4.29234015651305    9.26723529108032   15.84045081661574
H         4.03141024543673    7.60462458534194   15.26926777961163
H         3.30899684871570    8.95535440910118   14.39465247381701
C         5.38859487484518    8.53943938080079   11.00012422213533
C         6.54287990627671    9.21646645006810   10.52974510161579
C         5.37369235431958    9.92596702479391    8.50905600266739
H         5.37852564560816   10.42709041810706    7.55106416481343
C         4.21455908083692    9.30222667497746    8.95126099679482
C         4.21386402801735    8.63997773799310   10.22027951059768
C         2.97627972517923    8.11423426696338   10.67190344607499
H         2.94457258325769    7.69208424151115   11.66393997548621
C         1.84879487936005    8.15792330883425    9.90802771451819
H         0.91782155289893    7.75649453686732   10.28345384450868
C         1.87992005115058    8.74148791204159    8.62570226089581
H         0.98240229340776    8.75296575663126    8.02421067310807
C         3.02847917581062    9.31160045271404    8.17157807781461
H         3.06090895592078    9.79235004802806    7.20375051807622
C         6.52968688405408    9.91915827711981    9.28512658048109
C         7.70399637004793   10.57822123562322    8.84162199620465
H         7.66555307164487   11.10254410391762    7.89686201236561
C         8.85110874887335   10.54775607764835    9.57222778093265
H         9.74337088590310   11.04572830010705    9.22229000832976
C         8.88372060531677    9.83840628933989   10.78757965161084
H         9.80516833134526    9.79360465731259   11.34968722915017
C         7.77071135056237    9.19706257660470   11.24196769077184
H         7.82700691147361    8.63717292102437   12.17055550572507

