94
CSD_code = JEKNIX | q = 0 | S = 0 | Stoichiometry = C32H55N4OSiY | MND = 9
Y         5.79110970050151    9.40367974944969   12.97961741772715
Si        5.48145476256406   11.90816269776979   15.03807437207193
N         6.07293163475555   11.55496115235792   13.43733491774437
N         7.03915349535381    5.93538711857474   11.12645002862915
N         5.34245923995357    7.52464258592407   11.75509638194719
N         7.47579233748107    8.01362023949147   12.20406294693773
O         3.74687345192352   10.32979209778149   11.58445462285408
C         6.61304132007355    7.14254425847436   11.68815744582191
C         7.65947702828036    4.93962773108771   11.97044304463798
H         8.16331618197788    5.45330217513182   12.79088842100451
H         8.41416234298800    4.39764560544304   11.39044528152101
C         6.65936377109318    3.94006797029644   12.56199220802341
H         5.91668083806423    4.46176529183310   13.16065654328215
H         7.18252653454385    3.22873539656284   13.19647694546725
H         6.14817997771291    3.38758924349074   11.77676567199454
C         6.68957263015168    5.57131438768827    9.77350235183654
H         5.93730317010045    6.27365203556782    9.41365827507738
H         6.26178188588761    4.56124857526177    9.74167110232906
C         7.90145091408730    5.63288321001582    8.83732403624742
H         8.32878915085513    6.63261918377583    8.84290631030688
H         7.59775857490344    5.38589441761677    7.82299205761148
H         8.66863330457442    4.92775182007721    9.14750203635347
C         4.24079807619473    6.60440719839421   11.52920025742693
H         4.61474610362378    5.59452435373235   11.31429442668829
C         3.38495557143236    6.55055691594299   12.79826200096691
H         3.95044719054940    6.11861978550512   13.61922980664001
H         2.49167497678887    5.95130911039643   12.63299460714251
H         3.09008180238219    7.56510359606224   13.08135665584482
C         3.37213548621851    7.07781299903269   10.35787047132790
H         2.90073843829683    8.02141153330718   10.61976429231240
H         2.59872941054970    6.34362087062578   10.14351335809395
H         3.96794242865465    7.22704604934049    9.45994614734386
C         8.89564962509697    7.93316342406753   11.89430437722701
H         9.10489709974655    7.02833290618880   11.30666828389247
C         9.72842252802321    7.90484997931329   13.17819383237085
H         9.57285508159756    8.82726575565337   13.73475685204989
H        10.78518188139300    7.81253657199677   12.93778629512133
H         9.44289410698211    7.06505966030531   13.80835483747714
C         9.29790194545229    9.15221395210701   11.05436224942713
H         8.72130793805724    9.18185185514490   10.13109739824668
H        10.35508006832810    9.10340913555493   10.80190082499811
H         9.11207251697851   10.06934240587518   11.61438687968853
C         4.88104063611540   10.15407590778827   15.42068094163738
C         5.83170604030939    9.03178664504717   15.33134609889575
C         5.09382478588127    7.84385221035089   15.65513730060692
C         3.76882199874624    8.19503946537448   15.87410407591308
C         3.64212206170482    9.60346061967082   15.72897489606243
C         7.29403418685722    9.16199004641041   15.73515136074456
H         7.35244457411324    9.28903578543226   16.82083949488453
H         7.77800569718017   10.02475903609966   15.27400673641701
H         7.85117063835848    8.26054547517190   15.48012275151064
C         5.73125095430340    6.49517057871611   15.82234968414238
H         6.41348090558170    6.28312627580399   14.99649146175472
H         4.98361865011830    5.70526478444466   15.86360308176141
H         6.30368762681759    6.45617694966683   16.75198372681696
C         2.62760289179328    7.29660240847638   16.23227992037293
H         2.28203449712054    7.50622482951499   17.24601302312517
H         2.91580250679076    6.24938332012947   16.18568862822517
H         1.78415779046678    7.45082639284581   15.55807470012077
C         2.34094718887590   10.31983956005197   15.90986132833968
H         1.62309190898261   10.04074013461912   15.13396647633713
H         2.48236161227611   11.39475515238267   15.88545379440516
H         1.89823724506693   10.05328996920223   16.87006336992803
C         6.83321844898614   12.51067864783136   16.27094819318457
H         7.82984076645403   12.40917868177029   15.85205739820382
H         6.80533986986541   11.94736419908259   17.19769502300061
H         6.69274665252666   13.55711637380957   16.52359115887290
C         4.14626198329811   13.28644000597193   15.14983810572273
H         4.56341854197052   14.23493727629799   14.82792745741094
H         3.82017321307545   13.41164160155817   16.17701477318171
H         3.26905125546525   13.09942546931944   14.54056709809724
C         6.63958749681531   12.42626856788768   12.55923949699038
C         6.97696708976334   11.97865480118970   11.26410652061571
H         6.78004010914280   10.92686294786843   11.01555056079297
C         7.54102631002333   12.81877066566324   10.32658624286699
H         7.78779323926988   12.43677531686030    9.34433795439459
C         7.79147292104093   14.14663910979851   10.63456348710419
H         8.23051100455345   14.80628485190757    9.90166118409140
C         7.47531166358108   14.60981091201128   11.90358851555122
H         7.67366913361736   15.64160172134476   12.15989526604414
C         6.91519451118533   13.77638831768771   12.84661806826114
H         6.68849373394888   14.14986229154324   13.83249312104167
C         2.82907199726712   11.23768354638819   12.18842617195198
H         2.95930141835099   11.17935314088334   13.26873670645231
H         1.80307458813187   10.94543519779897   11.91679824774986
C         3.17743721119350   12.60502442654055   11.59363065420695
H         2.31240370628951   13.26354121400635   11.55941853261727
H         3.95960329724205   13.07594289613485   12.18634461553016
C         3.71232630898628   12.25318454904811   10.19514942217515
H         4.70190276101254   12.68090934476476   10.04592424464843
H         3.05576674305269   12.60676431306641    9.40216334991434
C         3.77372999570642   10.71702133205354   10.21145376598628
H         2.89262826767199   10.29697851216367    9.70383304325934
H         4.67616683856644   10.30668921827053    9.75653249407376

