93
CSD_code = JEKPEU | q = -1 | S = 0 | Stoichiometry = C48H40N4V(1-) | MND = 4
V         9.87507697092929   10.36569528459004    7.59520379112541
N        11.11290956503145   10.53876939828253    9.06396099250766
N         9.81547254341846    8.52483507612815    7.17749258211720
N        10.53206953098995   11.35363355478263    6.14619260551039
N         8.02295365692011   10.98686871981677    7.69801015896646
C        10.86463435412445   11.35639920201190   10.13188013059451
C        11.57258345627975   11.23631219945639   11.34437129244203
C        11.27637309366133   12.03402467117028   12.42784629733346
C        10.26190542135014   12.97613240971657   12.36042922562299
C         9.54402191224774   13.09985068070891   11.18089709456190
C         9.83572142172919   12.31307284687551   10.08850882680255
C        12.39344752524185   10.03012843015897    8.96118463912659
C        12.62504362328771    8.66188799680296    8.77026312123291
C        13.90768099931818    8.16771123545593    8.63597156065732
C        14.99969291518869    9.01583077215896    8.70223057839440
C        14.79250012865382   10.36801026188776    8.93411906621623
C        13.51644319906244   10.86894851029493    9.07226736814157
C        10.69707671533389    7.78360694377586    6.45138282377441
C        11.89068012579875    8.36253459318738    5.97513417036056
C        12.79363522282095    7.63024242208040    5.23945645805623
C        12.56012270655078    6.29341792585234    4.94816590404023
C        11.39065418078878    5.70612318652700    5.40181688084052
C        10.47290219362359    6.42916683699684    6.13424534569250
C         8.73971564328920    7.85436075678448    7.76180213573782
C         7.45022012217475    8.00895402615564    7.24091733757791
C         6.36864548238111    7.39099082206708    7.83659794929901
C         6.54601483189430    6.58831663165582    8.95110577532607
C         7.81999024259096    6.40081609019723    9.46025458537502
C         8.90595671873892    7.01792465385113    8.87136022533696
C        10.55482196566599   11.11380328877802    4.80368011633324
C        11.12893218972227   12.01231017382275    3.88332424600312
C        11.10105888779075   11.76531579135324    2.52677214202770
C        10.50035801815173   10.62374894614926    2.02341109840121
C         9.90604914152240    9.73766287968309    2.91083225125687
C         9.92217577231013    9.97539392435239    4.26667045391917
C        11.28880529082016   12.42124218557388    6.62403632706612
C        12.68916032846950   12.40258182092318    6.53515342610859
C        13.44324075516842   13.44348696811027    7.03852536559243
C        12.82824059775068   14.52922469011143    7.64235151250632
C        11.44511271581199   14.57395836606280    7.71296747211898
C        10.68170732540805   13.54565907457309    7.19489425842145
C         7.27887920303788   10.57536548610401    8.76504485323263
C         7.87145755228150    9.88652257671076    9.84045880286873
C         7.11164167432844    9.40893402494487   10.88517374969445
C         5.73690951884873    9.58626352242357   10.91057570382694
C         5.13086512357471   10.24420630141297    9.85181917567657
C         5.87808435235589   10.72776970250508    8.80125507052343
C         7.54980156694422   12.03044214532370    6.93650289999655
C         7.59426246788618   11.98885083842784    5.53480379393452
C         7.21025841481409   13.07605109612292    4.77731290285460
C         6.73852283818303   14.23077700295714    5.38192470674557
C         6.64690551637949   14.27776698457596    6.76531250585721
C         7.03965231804481   13.20180600908537    7.53191834134708
H        12.35489359165026   10.49214653972387   11.42531464117105
H         9.27563678451829   12.43332698513282    9.17356258353682
H        11.78255539361615    7.98574485796169    8.75561638657844
H        14.05399447811249    7.10708182438069    8.48239745425908
H        16.00252634320282    8.62787031483172    8.59035997959830
H        15.63878714376905   11.03845074050462    9.00914958493610
H        13.36078086828070   11.92087900820746    9.27049909893804
H        13.70124210079533    8.10472489299993    4.89040890306571
H        13.27553113534258    5.72124752810717    4.37429326037251
H        11.18643329853490    4.66655283083910    5.17736214880308
H         9.55981474598263    5.95207967118153    6.46633617704988
H         7.31162349288785    8.63092675124754    6.36491026716569
H         5.37787541418232    7.53402858462868    7.42800639825527
H         5.69724743776831    6.11001570711389    9.41863756841286
H        11.58756298785000   12.92209008066584    4.24682390692454
H        11.55333445832495   12.47990189183821    1.85057078642996
H        10.48516140877502   10.43254504338440    0.95958934244647
H         9.41872308776431    8.84738699070621    2.53524413842608
H         9.43676626356026    9.28335193624178    4.94000665721005
H        13.17585235598604   11.55817593511814    6.06355686996321
H         9.60206883236061   13.61652249991837    7.19528891493909
H         8.94162660232198    9.72110065253927    9.84454022523130
H         7.60098420783517    8.88976614762623   11.69913997237974
H         5.14708011601798    9.21007158801705   11.73470751608155
H         4.05583160963810   10.37594866456735    9.84242053678579
H         5.38238175046905   11.21699664578174    7.97226301910777
H         6.43848930282889   15.08070129985222    4.78510754876021
H         6.27364269500256   15.17031488154131    7.25130879909045
H         6.97307180254657   13.25395423773052    8.61165266565020
H        11.84032966069455   11.91307774897932   13.34440298891919
H        10.03334752932769   13.59916257531374   13.21386380037554
H         8.74710358389964   13.82907604797684   11.11180326321644
H        12.08896990358672    9.40057662604903    6.20222934988805
H         7.96818285181261    5.76803257342617   10.32512272960027
H         9.89912383713341    6.86384985908193    9.27502211388799
H        14.52174605372930   13.40526202118556    6.96409683900127
H        13.42188363788335   15.33919978074310    8.04287966633095
H        10.95525564361627   15.42814260785184    8.16040451690917
H         7.93059392493532   11.08503973033676    5.04804637211606
H         7.26999562473001   13.01666575713920    3.69866290910472

