44
CSD_code = JEKRAS | q = 0 | S = 0 | Stoichiometry = C15H18BN6O3Re | MND = 6
Re       -0.62151173770139    1.56060488897237    3.45263855437019
O         1.35481648814143    1.34863709483911    1.10024077140843
O         0.23653423934368   -1.21990695090244    4.46005042117988
C         0.59644283435091    1.40587112837329    1.97163050751871
C        -0.09230877107414   -0.18313627896322    4.07031105736042
B        -3.57903290828009    2.88752976389799    3.51747904778744
N        -3.51854552451475    1.63809519806743    2.61730521803064
N        -2.39347449864832    0.93877721751933    2.42508813604527
C        -4.51193995896751    1.08622148050599    1.90614874663558
C        -2.66624529494241   -0.05904710911956    1.59295084372960
C        -4.01071860491058   -0.00712929882450    1.23207139807945
N        -3.11641634380490    2.47499838369703    4.91976366929138
N        -1.92003367135246    1.91237053434380    5.09197919009206
C        -3.72614309272866    2.62324529739303    6.10461822066667
C        -1.75962214611262    1.69387796893053    6.38736640399036
C        -2.88573036917825    2.13452902054891    7.08302635541738
N        -2.53269569113840    3.87798351625806    2.98524333877962
N        -1.25247850334088    3.51794931493794    2.88250879693727
C        -2.69091779053722    5.13496256114552    2.54812772614015
C        -0.58824108541766    4.54243723996443    2.36973787987579
C        -1.45999611194688    5.60686510556355    2.14298508106544
O         0.98162510902410    2.63369161300952    4.94038184137405
C         0.89347090381353    3.96516986202358    5.41051200851896
C         1.96316020732919    4.03812984847127    6.49654138867571
C         3.09150254173280    3.20087712947763    5.88407466019282
C         2.36245448528746    2.28484149435779    4.88335771023758
H        -4.66224550149059    3.36238064769619    3.53400558305773
H        -5.49996941414891    1.49929482557324    1.92316932206726
H        -1.89909691122289   -0.74970542886015    1.30025165498309
H        -4.53798485429448   -0.66879585209231    0.57709885377350
H        -4.70225111991157    3.05866602435472    6.17606448612614
H        -0.86641061646526    1.23139544457816    6.76324198827685
H        -3.06016922482002    2.09657900380425    8.13870104248650
H        -3.65255386865899    5.60677574658374    2.55103114794173
H         0.46435336448193    4.47574906067096    2.16604508705820
H        -1.22658608890661    6.57043608768149    1.73908360138368
H        -0.11936614905645    4.13365230607526    5.78176901758412
H         1.11000661398697    4.68327322710346    4.60601045026968
H         1.59273691236613    3.57308241857888    7.41036892321850
H         2.26354574399128    5.05959464018229    6.71613359778521
H         3.62851147228694    2.62975614752479    6.63752126337598
H         3.80590270078118    3.83864934736473    5.36503313919352
H         2.42881404394380    1.22393387762366    5.13552820792311
H         2.74020819271125    2.42373645106780    3.86320366009361

