73
CSD_code = JEKWII | q = 0 | S = 0 | Stoichiometry = C29H33BCuF6N3 | MND = 4
Cu        3.00260799371552    4.88791289936462   11.45735934122678
H         1.58255483301987    4.13126496541023   11.54001775388434
H        -0.38452711877851    3.97067816139981   11.14887083161169
H         0.52697787922928    2.56726176372986   12.20900623725710
N         3.46274374095943    6.73651867345835   11.92629744265017
C         4.55178507732776    7.29233747684476   11.46802872787242
C         5.59554567378557    6.64133575732374   10.80978604109245
H         6.42413987833456    7.25151856618004   10.49477593874903
C         5.67721606990412    5.27483708086114   10.52481003632646
N         4.76673581599192    4.38275274275842   10.79351062223836
C         4.72989307737295    8.79998952209159   11.65264540332248
F         5.78046413924899    9.30770915683336   10.99287315974510
F         3.66381950175002    9.49749831993619   11.22096015337494
F         4.90843646165486    9.15042286820919   12.94022616759139
C         6.96449010237653    4.81767970125991    9.83674836311515
F         7.78955274986038    5.82232353756959    9.50620271444010
F         6.72960663261451    4.15379741575940    8.69201643242681
F         7.69369279457397    3.99129904898894   10.60835327074970
C         2.48687964344638    7.41169725702818   12.67612017652727
C         2.62949153716415    7.52384415166763   14.06255274407164
C         1.64425164624145    8.17729201793096   14.78680658338366
H         1.77342101667240    8.28846247036384   15.85446143787882
C         0.51484179690606    8.69793472236188   14.17625051395787
C         0.35651847948728    8.50537231552995   12.81063378617801
H        -0.53343226165972    8.87703161617413   12.32247834063541
C         1.31816177350266    7.86398828357852   12.05037600497606
C         3.82307968349698    6.94617283186372   14.76492312344494
H         3.54697666967322    6.60557339813654   15.76073010015618
H         4.60408506988821    7.69772008085797   14.87223352412615
H         4.23522860071990    6.11078689819521   14.20148464679304
C        -0.50660223104714    9.46216655227318   14.96413041517846
H        -0.48488032579717    9.17823559984926   16.01372485018707
H        -1.50738306748630    9.29802524351813   14.57039265908754
H        -0.29601927007109   10.53012503899415   14.90171301539217
C         1.12813423692936    7.65096755362901   10.58061967324073
H         0.11735772779033    7.91607840574704   10.28187907548800
H         1.31600703952909    6.60580328065662   10.32731601285159
H         1.82713915688624    8.26211257930844   10.01120897279459
C         4.89755289105151    3.00503862179222   10.53692905318627
C         4.34668866081335    2.46776810398553    9.36907573764955
C         4.43083852837487    1.10211030362575    9.15662802951041
H         4.01880791532910    0.69010021379658    8.24649871853214
C         5.02768748553211    0.25770950000165   10.08053824250099
C         5.51433568451183    0.80601328703548   11.25813406447778
H         5.95596227908876    0.15888492795217   12.00300851094919
C         5.45153733709869    2.16703675515538   11.50878423985165
C         3.66123414621321    3.36494183380425    8.38463102724586
H         4.37854208794304    4.01645203441128    7.88725893246417
H         2.93549922827088    3.99642135848561    8.90192177423644
H         3.14594523355091    2.77896491575275    7.62848041660431
C         5.12077151616551   -1.21901910755129    9.83806761772060
H         4.82536237722058   -1.46461483458613    8.82137641574759
H         4.46897433950716   -1.75758612141702   10.52609740440787
H         6.13879458809311   -1.56883289425857   10.00076230722608
C         5.96147539197977    2.72143629192739   12.80721458226324
H         5.45928844026059    3.65641686453930   13.05175327158402
H         7.03083100205235    2.91927120530911   12.74291946842332
H         5.79762005544781    2.00780725132076   13.61195254524567
B         0.43178907743407    3.72224734361906   11.96610532032536
N         0.12811964381016    4.50624267722345   13.26992335541396
C         0.88901358424868    4.39050150380695   14.37174979189157
C         0.54867440418869    5.07435561887331   15.53472244359514
H         1.17316759942630    4.96300735653983   16.40683618904495
C        -0.57142890863445    5.87956882300654   15.57665084518158
H        -0.84335093027971    6.40372870206091   16.47877651662869
C        -1.33614668884646    5.99476621928439   14.42436715788483
H        -2.21784737421544    6.61263182199661   14.39640693507354
C        -0.94645520400206    5.29934462897721   13.30371853410965
H        -1.51163135717266    5.36111869971190   12.38769975591587
C         2.10002840422211    3.53574396029141   14.33607789427848
H         2.79631893356020    3.92240801665466   13.58534257872397
H         1.84832803459802    2.52416471527041   14.02400543500806
H         2.58807936815548    3.51092144601697   15.30566059298769

