55
CSD_code = JEKXEF | q = 0 | S = 0 | Stoichiometry = C23H17BCuF10N3 | MND = 4
Cu        3.33450750315010    8.64632298962738    6.62962258168519
H         4.29589787675112    9.10865789530148    7.83623768048066
H         3.91206723542681    9.49298504998197    9.79409758823171
H         5.71394440639701    8.88062713928727    9.25090727311007
N         2.23342937394530    9.75098075478432    5.43153727231171
C         1.24846751747805    9.28510601229327    4.68750847816933
C         0.98657521349662    7.92807182336609    4.52470111545131
H         0.21840135506893    7.68902547787352    3.80494921374274
C         1.57938515893199    6.82611271755101    5.14108086259662
N         2.53321709318593    6.93112201487791    6.04916913029785
C         0.40683998972140   10.25548200381196    3.90495497765362
H        -0.42536914495759   10.59108488995144    4.52395286002520
H        -0.00184559981890    9.78725851244411    3.01449880798486
H         0.98959510104291   11.12861425123246    3.61490491942758
C         1.12293134926059    5.47352530213677    4.66746371136301
H         1.84710204464362    4.70017720682623    4.91524330683942
H         0.97326383829360    5.48480935994199    3.59061112851785
H         0.17257217113019    5.22076211522345    5.13646617719148
C         2.46001858173696   11.06084667041291    5.72271515078943
C         3.68712656761554   11.67148258622188    5.39583311822201
F         4.59428977969465   10.96173187011896    4.70113302245764
C         3.99768387658042   12.96337491999052    5.77345925858743
F         5.17336775959541   13.50423644905564    5.41787929545278
C         3.09464998780163   13.70907871434962    6.52606884068518
F         3.40817790112305   14.95258640833908    6.92442593851325
C         1.87373369409561   13.13973346946510    6.87676855176656
F         1.00590927098321   13.84038996361117    7.61699139834414
C         1.56269427792390   11.85553166344149    6.46677578136244
F         0.38221943194187   11.32425637946783    6.82888071806873
C         2.99568279608222    5.90554686123189    6.82391249888085
C         2.16614701540477    5.06116674236491    7.58718228723295
F         0.83248952543417    5.22268666641041    7.52553971884360
C         2.67535966635088    4.09344886417982    8.43816182292136
F         1.84114703087738    3.31655138001982    9.13858221420643
C         4.05033281325547    3.92645600939990    8.56721025489648
F         4.54751093845768    2.98752771415073    9.38156172594543
C         4.90245181485892    4.75968474603815    7.84630644861585
F         6.22780362193169    4.62498193053172    7.97011011179489
C         4.37952181350104    5.71946559123087    6.99929058153579
F         5.22242673374030    6.52090730081159    6.32237524241788
B         4.76861454468613    9.53726032870487    8.98192385380661
N         5.19358322048136   11.01116664338485    8.74442310963803
C         6.20571553214436   11.33925694440217    7.92190074193074
C         6.60049312460177   12.66934091837720    7.79533932587485
H         7.41597183229154   12.91161246662874    7.13292542289569
C         5.94730036714717   13.66842402841799    8.49006115138589
H         6.24236119999006   14.70015825173527    8.38407282218946
C         4.88697285959648   13.30903280474572    9.31278530878093
H         4.33224050130552   14.04809843292518    9.86708350153365
C         4.55219293934948   11.97782637506850    9.41032212109320
H         3.74474314847918   11.65244828972762   10.04697626636947
C         6.89019952058079   10.27746380483918    7.14508092717126
H         7.30181837592212    9.52155860579825    7.81109471636318
H         7.68508819317430   10.69768879720441    6.53670419243167
H         6.17727725863935    9.76376489062661    6.49863547225413

