79
CSD_code = JELCOS | q = 0 | S = 0 | Stoichiometry = C38H35O2P3Pt | MND = 4
Pt        1.06349204891520    9.67419762886481   18.13206588509638
P         1.56043144149884    8.50641606475335   20.06596803413247
P         0.11358537710591   11.63451307574188   18.95925883761960
P         0.89009276713574   10.47783224327690   15.99058898981652
O         0.07052383343106   12.97041153947128   18.11497537048197
O         0.27333566429321   11.83060375499460   15.78242666904312
C         1.72680748403022    7.77650821558469   17.58854318864653
C         2.28908076992221    7.23994662150357   18.92629503951381
C         2.93213739691526    9.03052767246943   21.12980633205644
C         3.50073893987646    8.19871960220641   22.08894000204081
C         4.56842528975728    8.65196643685929   22.84097780822497
C         5.07595770264711    9.92611698639976   22.63523151978986
C         4.52547854207013   10.74780037791395   21.66563403750761
C         3.45665275892051   10.29939751263775   20.91191074126326
C         0.39335951772427    7.61646783263348   21.12951926571347
C         0.30244202030469    7.85381886151946   22.49717306803460
C        -0.66946781421833    7.21362313971087   23.24460577593016
C        -1.56462157953959    6.35033628947012   22.63442779460851
C        -1.49393551556840    6.13199989543703   21.26759141915892
C        -0.52438198440570    6.76705249460642   20.51612054218196
C         0.51704499195879   12.23377182921613   20.62159028166433
C         0.27079819826210   11.38778757477411   21.69783068053037
C         0.66913606047208   11.75080665488729   22.96883111831785
C         1.32649983329421   12.95534928176597   23.16973039914844
C         1.57639266401974   13.79707510605785   22.09898154281509
C         1.17738070034172   13.43717019636279   20.82339654973536
C        -1.63851383906796   11.14944168442435   19.16192668907452
C        -2.57932826421454   12.01969691571214   19.69549809705905
C        -3.89949257315830   11.62219202423160   19.80095057982636
C        -4.28062180912489   10.35856622258212   19.37607993402196
C        -3.34456634086394    9.49057745997055   18.83775367749219
C        -2.02464612346257    9.88799900006310   18.72873502068898
C         0.03628930370195    9.27708055756583   14.91277315947871
C        -1.33898605725336    9.42209163714134   14.78431439389949
C        -2.06965471451642    8.52059582540518   14.03245114017017
C        -1.42663542794794    7.46509635434087   13.40669233713063
C        -0.05514712774714    7.31407026848776   13.53651533693981
C         0.67616896348630    8.21259946764721   14.29197490242675
C         2.60861264154640   10.52258457275766   15.36524711920307
C         3.64045642844924   10.48341682281302   16.29107074447974
C         4.95453583914034   10.59109932848885   15.87429143312993
C         5.23565704683129   10.74553326533466   14.52616708083694
C         4.20545658187585   10.80286053059020   13.60044319745978
C         2.89107870452803   10.69766989688380   14.01912378577819
H         0.14223976392788   12.70503248330332   17.14587847956344
H         2.47906286550708    7.71437953694371   16.79676055152323
H         0.86673715025986    7.17096401935526   17.26852188947864
H         2.01636920512343    6.20597107618317   19.16125556578857
H         3.37876389649352    7.33021233082518   18.96370692828604
H         3.10447939313227    7.20376470922730   22.24110239274928
H         5.00916999953189    8.01041392403430   23.59027821412797
H         5.90730282628218   10.27494910604148   23.22987565682333
H         4.92711015657118   11.73610788543789   21.49847725781144
H         3.01557907227467   10.93032806863193   20.14741556008566
H         0.99365000624349    8.53627351668286   22.97190266246585
H        -0.73155736396596    7.39253258271901   24.30828862662725
H        -2.32236227407468    5.85430440722544   23.22249209170403
H        -2.19948653621920    5.46899657378356   20.78859977945752
H        -0.47479904092503    6.61276616511910   19.44649186971159
H        -0.24389539437034   10.44952066629586   21.52659487875821
H         0.46908728735743   11.09812292389406   23.80667098572214
H         1.64285734000702   13.23663336244975   24.16353843380441
H         2.08743321362230   14.73553222282356   22.25859928368642
H         1.36919635844090   14.08252738181830   19.97887779308490
H        -2.26686566833047   13.00303213804410   20.01899089574053
H        -4.63563369561420   12.29657172950173   20.21408455097056
H        -5.31320329472405   10.05212129204353   19.46023585426865
H        -3.64583287537571    8.50987936964246   18.49916172232589
H        -1.27462923396558    9.22198622393349   18.29077523762281
H        -1.82085103027811   10.25775028327137   15.27340688064204
H        -3.13934645429971    8.63908213121479   13.93244654526785
H        -1.99327394189380    6.75998168660165   12.81537545425706
H         0.44546581551243    6.49149946339927   13.04518188588945
H         1.74586702293080    8.09688585059763   14.39289077278621
H         3.39287151683370   10.35981937703842   17.34857732205928
H         5.75977972858987   10.55602693187889   16.59463760371948
H         6.26125975069293   10.82673680890126   14.19548860017511
H         4.43035025631339   10.93092178309568   12.55114446246176
H         2.07535383701343   10.74828326442938   13.31084378853163

