37
CSD_code = JELFOW | q = 0 | S = 0 | Stoichiometry = C16H13CrNO6 | MND = 6
Cr       -3.33046435253115    1.48653838705287   -5.20998919151685
O        -4.24413675334141   -1.36781278801876   -4.91773361785560
O        -3.90319546122580    4.91372014719529   -8.37096494905769
O        -2.36605429742986    4.31846806588091   -4.85588472113168
C        -3.91215062299727   -0.28986301780584   -5.14397936947059
C        -5.07873014196662    2.12904009777230   -5.17651403283392
C        -3.22178146806965    1.33288050916393   -3.35852785195568
N        -3.39417861573023    2.75079567842736   -7.86079703717584
C        -1.56246845993746    0.93169532703728   -5.41134143142543
C        -2.72980483339596    3.24392998789786   -5.05248455446660
C        -3.45053027647462    1.62444480191311   -7.29123950749191
O        -3.15914164557972    1.22345208786677   -2.21418844322175
H        -2.01225453521738    6.31254197584152   -8.83230161841957
H        -2.93625909686257   -0.32660133910243   -7.92073721229330
H        -4.65594285897909    0.02261876810733   -7.95219399647312
C        -3.01830693440726    3.92634494504664   -8.14999974529390
H        -3.72647174516389   -0.17447446691608  -10.26377647480825
H        -2.60941947359545    1.15347274030242   -9.93832511274357
H        -4.34772423513868    1.45197258836531   -9.98385376769125
H        -5.82056139129743    5.50815684388758   -8.39438445644594
H        -5.44096182168701    4.33386558733656   -7.10461035558465
H        -5.58875452480790    3.78191462254884   -8.79075703535267
O        -6.13253194287839    2.59367325057588   -5.21060399196739
C        -1.24202766034142    5.58253018496684   -8.64109570956124
H         0.37085354813322    6.92998854923064   -9.00929616124824
C        -3.67146432370474    0.43616982871018   -8.19316849169356
H        -0.89216574504633    2.32854296212879   -7.75814835699765
H         2.11773227679177    5.25108392207771   -8.54880576607641
O        -0.46231110638509    0.61962739370893   -5.54304271801874
H         1.48070086234379    2.95175414547272   -7.91803116930686
C        -3.58313132621782    0.73663545510201   -9.68820744316126
C        -5.26505312266135    4.60619563410658   -8.14839428637934
C        -1.60605866324121    4.28341977343708   -8.28694846317318
C         0.09343300041167    5.92293659646064   -8.73603264773010
C        -0.61379417803327    3.33597396329797   -8.03211397202414
C         1.07528053882441    4.97976728996983   -8.47718236458032
C         0.71833138785036    3.68749950095764   -8.12424397536564

