72
CSD_code = JELGEN | q = 0 | S = 0 | Stoichiometry = C37H28CrNO4P | MND = 6
Cr        2.74210350371482    9.68552726282405    9.33055793336142
P         2.74751298759924   11.33449460144904    7.59629969718939
N         5.09618944711548    8.68550134452741    7.98216067746961
O         0.94965992243043   11.21536674831460   11.17819871781071
C         2.04759911088746   10.90066467324464    5.96073527314439
C         1.17673045817976    8.96495203371683    8.63685894619526
O         4.63013397044773   10.91447275799195   11.29038289055045
C         6.85145635528785    9.45769719612378    9.35353518494670
C         4.05930694992903   10.46043349577741   10.39199371385147
C         1.63143660745491   10.67631302026547   10.41591262902420
C         3.95698056618056    8.31193740381758    8.32950777299156
C         1.59640700581047   12.66959642044349    8.07692246650920
C         6.81441278791827    9.78477592354420    6.79921150215602
C         6.22283037809100    9.28809710455721    8.03759136447969
C         4.21974425818417   12.31413660013035    7.10418435677182
O         0.11296592871654    8.57088786542852    8.41807198312156
C         5.10349309714904   12.66573729012547    8.12107510256474
H         4.89687096943755   12.34820074518089    9.13451617182645
C         4.49521207852017   12.71151476034986    5.80072340375572
H         3.82735539655627   12.44155783657619    4.99592523782311
O         2.87370131769241    7.68701078723483   11.54573958398116
C         7.59721761460453   10.59796876609817    9.65153684633557
H         7.74485328051776   11.35166241076454    8.89294758411596
C         1.39617574963348   11.83431797990047    5.15763970781187
H         1.28292047654426   12.85331383498543    5.50253206261969
C         3.59455409152283    6.86848742304878    8.11003287433227
H         2.55104692133821    6.76464629296020    7.82136460725713
H         3.72626888966903    6.33953427361621    9.05523825874141
H         4.23521286252583    6.39871121248519    7.36139960919031
C         1.02578114967320   10.15089358793311    3.48644047587018
H         0.62698256372391    9.86102467669635    2.52566609392932
C         8.18669503263837   10.01490718111370    6.67967457133912
H         8.83935427474120    9.81641323839896    7.51637330984618
C         2.17573466484718    9.59027808059709    5.51344826193736
H         2.66592127863423    8.86047102114901    6.14648963233102
C         0.88784660813885   11.45734885855282    3.92805506741094
H         0.38114841566393   12.18540857041147    3.31142575373467
C         2.79865875697277    8.43043512745061   10.66177463692089
C         0.24396971235704   12.33550492741070    8.14331499610560
H        -0.07447696377250   11.34389381721560    7.84715134724655
C         6.00613071540714    9.97499630684721    5.67504225358835
H         4.94574733382413    9.77731473890068    5.74762882998129
C         2.00677651233318   13.93583397878661    8.47400391890660
H         3.05306869206556   14.20528243076278    8.43691179187033
C         1.67044290899547    9.21719145108753    4.28056435909251
H         1.77522786468631    8.19734584314062    3.94043136248412
C         1.07391630597225   14.85727829267180    8.92009008094084
H         1.39989784218891   15.83992153899915    9.22866535079137
C         8.71944234631962   10.46303141554699    5.48655465961612
H         9.78247510915944   10.63911998177008    5.40963065389152
C        -0.26755994856222   14.52314427107576    8.97602192412290
H        -0.99040440836742   15.24322597416003    9.32941908698199
C        -0.68206800496775   13.25894957742858    8.58454942533113
H        -1.72733978429205   12.99218113129231    8.63332224263941
C         6.61822589974959    8.52140332206601   10.36190676772928
H         6.03804904344355    7.63608105075494   10.14299727402470
C         7.90264665720079   10.67522092316797    4.38784075001764
H         8.32448104105171   11.02589954614363    3.45783652528069
C         8.10181403951306   10.78618823172659   10.92360011827998
H         8.66691036143396   11.67941790715413   11.14717429506653
C         6.54460717513184   10.41787710845130    4.48501595576883
H         5.90263481431141   10.56319885031777    3.62841608980340
C         5.63422752159330   13.44718870718058    5.52463230733609
H         5.84345708533833   13.74594605327445    4.50804613093217
C         7.87330472192722    9.84625860843185   11.91523609787827
H         8.26430627487795   10.00211250116795   12.90934004822437
C         6.23205182185689   13.41438490973103    7.84388238367481
H         6.89937523664604   13.69859979941138    8.64466797536498
C         6.50342297013297   13.80112850803795    6.54170626481979
H         7.39026127441478   14.37616048738358    6.32066064637617
C         7.12986425121674    8.71326815158957   11.63018914315208
H         6.93803784815377    7.98235124905046   12.40130497940641

