55
CSD_code = JELMUL | q = 0 | S = 0 | Stoichiometry = C25H26ClO2Rh | MND = 8
Rh        1.22369321479913    6.96529155684035    2.97102758097134
Cl        3.38318542762747    7.38576678924407    3.59561942694403
O         1.91198874219083    7.35220195779047    1.06092446736829
O         1.85405044293561    4.99468858977951    2.69722239421956
C         3.17852007687856    7.22044551804423   -0.88554600279059
C         3.47574139800030    8.58087452952891   -0.88875297031688
H         3.33745756724205    9.14325132341866    0.02236719942409
C         3.95871095379862    9.18673868631766   -2.03319199263765
H         4.19889663387133   10.23975519767916   -2.02494124373965
C         4.13351343936901    8.44422654577183   -3.18949624570166
H         4.50908081230125    8.91658968773056   -4.08538537775716
C         3.82113869486610    7.09446988379088   -3.19753322391097
H         3.94638455574240    6.51699007809952   -4.10196377592519
C         3.34729753674769    6.48111649937187   -2.05202858477288
H         3.08802385433012    5.43299736393396   -2.07068138956865
C         2.67854818418939    6.61455427279664    0.37857183486413
C         3.08785308748413    5.31447436970830    0.68669796517868
H         3.75989147775757    4.82518767005785    0.00266892156672
C         2.63050076891817    4.58623993787145    1.79072860673661
C         3.03483682282084    3.15583435886019    1.88645720860770
C         4.31667393623214    2.73333180227374    1.54883268334658
H         5.05267052729854    3.45237833652756    1.22313763258712
C         4.65959555554813    1.39858146191855    1.66633917942968
H         5.65876093804794    1.07803955235333    1.40996442635854
C         3.73001855487804    0.47393293022119    2.11336060804950
H         4.00097931329716   -0.56825741677360    2.19746534004873
C         2.45564214342837    0.89040659881313    2.46130168863208
H         1.73043378269629    0.17346903844309    2.81791315040553
C         2.11300042274574    2.22514616307929    2.35722274911471
H         1.12444290805540    2.56255413107503    2.63116572258826
C        -0.12922896364801    6.72957716072331    4.64145198330548
C         0.38165927364255    8.06019084359152    4.67437240940446
C         0.03332976699147    8.69156291848662    3.43374081226240
C        -0.82126843867714    7.78940233557234    2.69991600163483
C        -0.90671631095194    6.57884632286968    3.42884630297730
C        -0.08325578501094    5.73354963582612    5.75711708531893
H        -0.98292918032794    5.82170445454073    6.36978901702024
H         0.78815305670874    5.89875152666045    6.38550851694408
H        -0.03228210880442    4.71989057362955    5.36620559742985
C         1.10174798968260    8.72241240081520    5.80438312660388
H         0.96288301538368    8.16437595019642    6.72678331582887
H         0.71933826305554    9.73318574385879    5.93932181149431
H         2.17087100293540    8.78409901177815    5.59741277646476
C         0.27108668301670   10.12974477811603    3.09589868546735
H         1.21309630205657   10.46943328915422    3.51952584887715
H        -0.53636291337841   10.74349090520983    3.50133330528019
H         0.30323946454622   10.27201279764900    2.01838056954681
C        -1.52706183869869    8.14550678157240    1.43182629257388
H        -2.27402764960428    8.91427612219272    1.63558412003764
H        -2.02602004675119    7.28189199219949    1.00014142885495
H        -0.82446758734070    8.54081879174582    0.69949906261886
C        -1.74875535547296    5.38524018881438    3.11192723815325
H        -2.02521941242948    5.36224025097204    2.06069440140449
H        -2.66092500273320    5.41270205093125    3.71111200825832
H        -1.21661599829485    4.46611575830666    3.34866030291693

