71
CSD_code = JELMAR | q = 0 | S = 0 | Stoichiometry = C30H36ClO3Rh | MND = 8
C        -4.73383195019194   20.73619445397615    9.22419717521662
H        -4.94426127740245   19.89592783860135    8.58065927681618
C        -5.14940226944399   21.99801892395679    8.85096095224796
H        -5.69962229030596   22.10286147897142    7.92791575406081
C        -4.87176726540158   23.12244016205025    9.62654947758454
C        -4.14084828539786   22.93062023231978   10.79338394964026
H        -3.88887852877703   23.76513384913513   11.42743248952876
C        -3.71260885807224   21.67149857484202   11.16902183768403
H        -3.13803324163628   21.54160880456418   12.07407309633331
C        -4.01337292010460   20.55272117135754   10.40015046155524
C        -3.51797764132281   19.21987570239871   10.83370511830128
C        -4.30265827853339   18.09840857498982   10.54182943837958
H        -5.23218014056609   18.25665060737571   10.02302657130233
C        -4.02578070060502   16.80689074926315   11.00026208551661
C        -5.03152030262752   15.74350592340626   10.74640485083080
C        -5.78085260004432   15.69352599753971    9.57767822513235
H        -5.63451088212747   16.43759646383633    8.81020742403618
C        -6.69067737706455   14.67486541678360    9.35861047907030
H        -7.24642621009633   14.66178228127453    8.43415901791625
C        -6.87333322199914   13.68268308537589   10.31717810050536
C        -6.11378641780889   13.72295139627199   11.48927254010028
H        -6.25946004272000   12.94306179666901   12.22004006791979
C        -5.20164833246201   14.73175228529341   11.69220838788636
H        -4.60992578628965   14.75783337359412   12.59458807899730
C        -8.53240087752355   12.53946061546264    9.04969134697746
H        -9.18826600578038   13.40758024159051    8.92819053465447
H        -9.14020713524919   11.64638125657338    9.18646198394063
H        -7.91420768171864   12.42174241716693    8.15407037905006
C        -5.36261593848736   24.48651632600326    9.16945500482818
C        -4.75916399602395   24.79980690258239    7.79294677351128
H        -5.07733258668611   25.78578751460093    7.46068989024729
H        -5.07054998187958   24.07333497710544    7.04783344849446
H        -3.67270573978847   24.78717103952844    7.84749565691254
C        -4.96596638919479   25.61008709752132   10.13092382055035
H        -3.88468408358239   25.68973703787934   10.21448715048112
H        -5.39038232538376   25.44841807038066   11.11913828650119
H        -5.34399634299551   26.55863839273915    9.75472033225877
C        -6.89462044697214   24.45805737411869    9.07228283300687
H        -7.32842704941057   24.21987067908848   10.04135572903131
H        -7.23278684089162   23.71459039395776    8.35608980606798
H        -7.26779392407868   25.43005219720473    8.75638345219310
C        -0.12280222785567   18.63401623402996   13.59005133211749
C         0.68217731876646   17.74503435338778   12.82932410488965
C         0.18544966320162   16.40505141815834   13.04533230431231
C        -0.88133611955707   16.48122791315187   13.99232057226294
C        -1.11279423544504   17.85711048196366   14.29783424064729
C         0.09926080231339   20.10628459787676   13.73330886929419
H         0.91334321341945   20.28640152114790   14.43800604987272
H        -0.79379347331636   20.60085927115493   14.10602752956814
H         0.36395002000240   20.55187035270545   12.77672545514614
C         1.91483339140028   18.07727470558638   12.05186098143236
H         1.83554074516081   17.70189418023898   11.03246530602627
H         2.77873412961179   17.60752214946750   12.52414439072307
H         2.07437520758006   19.15118471216208   12.01330446252732
C         0.85142252578886   15.15868027768418   12.55539561864476
H         1.17950138559473   15.28368441878701   11.52589097648789
H         0.17284700316328   14.31101578095187   12.60260998140838
H         1.72549265252676   14.94193130374036   13.17305648691147
C        -1.58621364416745   15.29815100553644   14.57336486707490
H        -0.89789421295078   14.74248992109515   15.21197049787282
H        -1.93019564596005   14.63223569270724   13.78316248217749
H        -2.44341919986101   15.60181456186769   15.16837810581343
C        -2.04496879333137   18.39091186257664   15.34013582836855
H        -2.89712683152149   17.73010179927730   15.48038583782338
H        -2.42046966806668   19.37296681591709   15.06096689315517
H        -1.51940069175373   18.48383616651389   16.29293849026793
Cl       -0.80998897829825   17.31232589049207    9.91131019417372
O        -2.43857921438905   19.23336874343447   11.48971456640631
O        -3.01768087723109   16.44218714314134   11.67146111377631
O        -7.74495578272859   12.64509530315590   10.21111647000619
Rh       -1.37063629559658   17.58072974473451   12.12740470554331

