96
CSD_code = JELMEV | q = 0 | S = 0 | Stoichiometry = C40H42AgB9N2P2 | MND = 4
Ag        9.95754811780701   12.92094848754901   10.49993778812113
P        11.13838428339753   14.32556473442384   12.24068125733786
P        12.24441317328511   13.23485296266555    9.41416411782774
N         8.03597819951743   12.58043264132804    9.22137404824045
N         9.40743873856167   10.59531899554491   10.53402290253184
C        13.07948587316340   14.71381320054937   10.10437089980346
C        10.30650892300477   15.57228971708417   13.28485545914620
C        12.49366602740016   13.35815427564837    7.61146455062294
C        13.29565780297232   11.77429904601250    9.75156702139306
C        14.41183427786702   11.74267021951434   10.57552427660231
H        14.79585156067902   12.65668685154222   10.99881275759021
C         7.37888193665656   13.54453242564790    8.59699785080048
C         7.70842502462942   11.29457586615532    8.99355313786198
C         9.14725406067100   16.15987704498320   12.78841078734139
H         8.77486506480294   15.85224696450118   11.81817784828324
C        11.44666645249912   13.88109731423078    6.85818001297048
H        10.53590926695254   14.18246182890293    7.36314171751147
C        12.54365688675609   15.23676460260771   11.47452886497994
C         8.43398056815005   10.25594386155973    9.67055713500172
C         6.33440380241915   13.27509409856026    7.70232599332383
H         5.82297645956313   14.09514101826295    7.22222604558669
C        11.56519557324959   14.01592966593796    5.48868416569189
H        10.75012440519809   14.42849574153806    4.91129034285440
C        10.98184450099965   12.74659109068585   14.49366726123013
H         9.93553968345666   13.02533516133251   14.45242295651316
C         8.10601303382906    8.90456592022280    9.40556553015077
C        10.77518546683621   15.95141128697557   14.53856967125938
H        11.66945994294535   15.49920229071159   14.93975865796480
C         8.47752569052889   17.12383432676948   13.51727431327003
H         7.58197838102426   17.57934663681628   13.11958520914499
C         8.95541286135956   17.50305981862633   14.76087736757194
H         8.43479954824075   18.25586582046945   15.33423643508455
C        11.86439276735731   13.28164132037258   13.55523376747100
C        12.77026000085502   11.51335497167693   15.50523300915058
H        13.12318289549505   10.83159355350035   16.26515006874784
C         6.67508974351003   10.93464610696953    8.09644904789461
C        10.10091972195565   16.91216555182136   15.26880735873642
H        10.47321623270118   17.20511775784955   16.23963156935964
C        10.09073571153063    9.65382307799934   11.15635933799001
C         7.77989989750303   14.95522826323372    8.87734295354506
H         6.99247758958741   15.46766880875090    9.42965118795416
H         8.69864017730312   14.96600423134417    9.47301969966154
H         7.94773080575159   15.49966484620446    7.94982862495224
C        15.05845216688680   10.54429707040418   10.82844508730451
H        15.92879000294420   10.53155521137322   11.46841922598534
C        13.65730385322478   12.95018692114471    6.96893600536973
H        14.47257717752544   12.53489981767484    7.54246420364131
C        11.43227538527364   11.87848366869066   15.46746542704844
H        10.74237755950681   11.48117281283149   16.19858158122269
C        11.14326921603573   10.07427051780037   12.12575638887601
H        12.05989985701587    9.50961628058433   11.97107760148631
H        11.35669610681269   11.13702462083434   12.01043769260133
H        10.80439029458462    9.90046478478570   13.14690445238654
C         8.85001457665025    7.91376352635952   10.07292608860543
H         8.62930244984892    6.87192773877188    9.88981229283386
C        12.73171175701890   13.61757604650881    4.85556217018622
H        12.82830324151548   13.72166601599080    3.78481050345846
C         9.83887766369917    8.28848779274474   10.94300828467808
H        10.42774148643438    7.55455036256506   11.47115956040813
C        13.64913010051642   12.02668954593478   14.56801688216588
H        14.69197981059626   11.74622798284436   14.59391136503997
C        13.77221731599973   13.08279576610068    5.59729227908928
H        14.68068120141201   12.77011985676160    5.10328771118976
C         5.98136470293823   11.97407357578027    7.44997358367466
H         5.18272453034649   11.73373022403645    6.76357798692329
C         7.06479665060118    8.58653730852778    8.49809331745756
H         6.83983679767646    7.54505257077935    8.32066409489371
C        12.83854183081144   10.58220191090670    9.18869265595255
H        11.96204190171639   10.60554078128260    8.55048397453583
B        14.62834448639386   15.03589652233056    9.80153768085137
C        13.19950996048432   12.90555058258826   13.59767645624437
H        13.89338908012353   13.31745080206561   12.88385933747725
C         6.36990229874782    9.56856363036223    7.86829486523276
H         5.57515836651745    9.33095197010472    7.17654329092190
C        14.60015395622298    9.36759465712563   10.26256947663156
H        15.10762405375971    8.43493132151685   10.46235877741570
B        14.20384494908828   17.34164680794047   11.46681601322131
B        14.82184639558897   16.73356243870462    9.85039247436176
C        13.48777085025649    9.38969792947509    9.43336114137487
H        13.12670750440725    8.47443469165977    8.98535429125589
B        12.47396377286089   17.02320729289861   11.49797731300914
B        12.05405130436885   16.12462083839458   10.06099511803610
B        13.43376655630209   16.06840408884303    8.99417845391685
B        13.63719516706869   16.00708303339396   12.37329750143274
B        13.19033729984586   17.49068723494782    9.97801147219060
B        15.24180691652302   15.83232803530786   11.39063561953781
H        10.93605181695880   15.97155394184791    9.68884300121621
H        15.70463804512980   17.29443489499313    9.30670188272379
H        15.27878515862747   14.24317151743466    9.21618207016856
H        13.62620990089105   15.86596955566452   13.54486137459537
H        13.26921101716117   15.94215800135518    7.83477155624584
H        11.63057894034803   17.57415892048281   12.10761244815836
H        14.68862665102294   18.29599067690217   11.96060434450041
H        12.91734739936789   18.52314592364598    9.48043419733850
H        16.35322519972154   16.11428664852697   11.70833697712067
H        15.10084418254031   14.71029292260785   11.78161943884303

