76
CSD_code = JELNEW | q = 1 | S = 0 | Stoichiometry = C31H38N3O2PRh(1+) | MND = 8
Rh       -0.08899570219236    3.83853467423172   13.42282324168454
P        -1.80277225438871    3.30545758926470   11.98008401234333
O        -1.30129627671455    5.51078267305761   13.81197181654348
O         0.73160960670949    4.92192873281478   11.85058651332149
N        -3.35678133046491    4.07915830824229    9.85094210401499
N        -3.14729824044357    1.69586354484452   10.21556583556929
N        -4.51861540182412    3.03255967585562   11.70154260960967
C        -2.03486767769220    7.72027294602187   13.89724335613947
C        -2.32087439949858    7.65286447658714   15.25965321852812
H        -1.90818704796524    6.84175427223732   15.84100505381635
C        -3.10368626550535    8.61934512199542   15.86057058971099
H        -3.30785121143692    8.56551295553403   16.91904106485484
C        -3.62666075282118    9.65487183015975   15.10304048647439
H        -4.23911885620530   10.41054818164447   15.56999495190135
C        -3.36773391313348    9.71548954639102   13.74295695611463
H        -3.78622074279268   10.51352664131046   13.14899398179043
C        -2.57512417604388    8.75705696422371   13.13923489879296
H        -2.39925685077268    8.80231607446454   12.07525332694056
C        -1.18709769834493    6.66429460771173   13.29079241165632
C        -0.34318249199363    7.01839368600763   12.23420362369349
H        -0.31612754047811    8.05501539245415   11.94725321847529
C         0.55965994083355    6.15525753822771   11.60446708333169
C         1.43591366471841    6.71620172141573   10.54612380383311
C         0.98255608199365    7.69318815661883    9.66245161193366
H        -0.03422979189423    8.05006090721583    9.72207150078782
C         1.82506353779191    8.18293744276925    8.68180754819548
H         1.46635982441777    8.93589203582994    7.99684596411390
C         3.12362458478946    7.71084671089808    8.57467666051661
H         3.77888184502956    8.10229530634586    7.81197091158771
C         3.57679856286338    6.73129381303815    9.44341862287448
H         4.58604546457156    6.35791647077191    9.35957964101324
C         2.73506874622236    6.22924817360430   10.41718379077010
H         3.07793823712229    5.46665832052131   11.09998524149851
C        -2.17471920864895    4.47736060711459   10.57762599200534
H        -2.32466781864381    5.48472403847954   10.98197622133688
H        -1.31851424366518    4.50305889100960    9.89373227298102
C        -1.93154534496471    1.72373073731613   10.99061448083240
H        -1.07010614290724    1.64898484347285   10.31805633751927
H        -1.92412466351018    0.86260448546313   11.66648060061221
C        -3.51707934211529    3.27538162421286   12.71257929089319
H        -3.57853702222157    2.48932944453352   13.47299383235947
H        -3.70939160649966    4.23872649319609   13.19773370949436
C        -3.20456741704976    2.77020292743375    9.23812280313826
H        -4.06541218440768    2.59444784907258    8.58770201081920
H        -2.29401268642634    2.75852863640487    8.63413613885173
C        -4.54210449847880    4.07898235599517   10.69311364120620
H        -4.63497024058623    5.05053210440753   11.18511097936318
H        -5.41450404959812    3.91837906796607   10.05417180855598
C        -4.33683336061461    1.74580671603689   11.05025223050358
H        -4.27853227047566    0.96178079072483   11.80952100288095
H        -5.20638275750355    1.55906075720733   10.41468181560176
C         1.91075526159315    3.29834353451882   14.25847040560983
C         1.11171818859468    3.89715782065944   15.27076143761775
C        -0.05709047527628    3.06681375615143   15.46544718532251
C         0.02247917311317    1.96952774025024   14.56060930009356
C         1.21300056566122    2.14379950241875   13.76015091633112
C         3.26842314181037    3.73012355816032   13.82264680868361
H         3.44214406959570    4.78166876608973   14.03801240381880
H         3.40990115196365    3.55804575565137   12.75775612548478
H         4.01514461918663    3.14281445050989   14.35969366291779
C         1.48421674275443    5.05128719515738   16.14172023296390
H         2.16275814653097    5.73272064318626   15.63389541427266
H         1.98289142995205    4.67803138603126   17.03797066083417
H         0.60174818353116    5.60606940857302   16.45275832747574
C        -1.06221108388014    3.26561154222383   16.55103057191578
H        -0.56699001925173    3.19663156705449   17.51990186751908
H        -1.84534710614970    2.51446683964856   16.50676764088391
H        -1.52241196162669    4.25030885946604   16.47852691940480
C        -0.84696193232056    0.75503285131655   14.58577617408414
H        -0.51803872102988    0.11101806941070   15.40322971605738
H        -0.76714618032053    0.18854969525723   13.66209492003762
H        -1.89065315622281    1.00805735068636   14.75849888038004
C         1.79030551247636    1.14933326253053   12.80540806296351
H         1.01997549665165    0.51306748249201   12.37772504896176
H         2.50505382142753    0.51568255693751   13.33276810104706
H         2.31599851525929    1.64756954333211   11.99403839397636

