79
CSD_code = JELSID | q = 0 | S = 0 | Stoichiometry = C31H35BF3IrN6O2 | MND = 6
Ir       -0.49930986531750    1.72738237364933   13.50777550431249
B         0.81439483483939   -0.66949115025948   11.92892504051139
H         1.34705926531144   -1.58255100538543   11.41005493489834
N         0.95386893112080   -0.77941608368335   13.47010273534370
N         0.59448929468086    0.20981862655048   14.31215943572058
C         0.96243142024934   -0.13858992631373   15.54860885364230
C         1.56153120535616   -1.39624130475890   15.49396187128878
H         1.96010303878933   -1.95329926218191   16.31669390579823
C         1.53747542480839   -1.77072165316809   14.16306127672325
C         0.80201077912092    0.69705830323178   16.76779673929320
H         0.29355303090299    1.62673887616255   16.53543277395290
H         1.78255779807416    0.92944324057133   17.18083546151718
H         0.23838673994977    0.15011120694251   17.52123911547157
C         2.04540505764261   -3.03067264016491   13.56205038270619
H         1.25563025679947   -3.54118837278532   13.01499667332192
H         2.40941810909257   -3.68393308485559   14.35035702792015
H         2.85993871894361   -2.82904952548289   12.86904728381109
N        -0.67290643359705   -0.62665173415916   11.57925835587285
N        -1.48424261829936    0.23267093615319   12.21266075258524
C        -2.70793076094921    0.09173867304138   11.71493388388600
C        -2.68031944198763   -0.89209141253694   10.72295678421987
H        -3.50511684021878   -1.23091183161279   10.13014956126093
C        -1.36759370658523   -1.31884667234812   10.65826252378182
C        -3.88909359651037    0.84903449607222   12.20097096616070
H        -3.64774042477570    1.36981429347446   13.12399372602836
H        -4.72298209516137    0.17019228350211   12.37550102088171
H        -4.19969105157508    1.58003393661790   11.45472635167238
C        -0.76799000727709   -2.34299454237146    9.76464158112393
H        -0.26878567211060   -3.12076510923052   10.34028470674243
H        -0.03390508538002   -1.88581289730276    9.10328961815800
H        -1.54832926437816   -2.79587081490849    9.15901059218399
N         1.43755136962983    0.65618848019847   11.49333528867680
N         0.99022175742833    1.82342956870733   11.98977307067512
C         1.61165912992601    2.80864129880776   11.34893820657347
C         2.48979439324546    2.25432156352405   10.41352580233785
H         3.13008710373068    2.78665326420863    9.74009117672624
C         2.34755222929243    0.88618646069434   10.52931336599888
C         1.41994590496733    4.25939923123746   11.60651952232479
H         2.19242641897457    4.62692046208677   12.28332235335604
H         0.45468832870625    4.45581393379468   12.05943331524139
H         1.49299679739120    4.80593792190119   10.66850687958323
C         3.04552054559818   -0.18360762029345    9.76954076269589
H         3.56761784185377   -0.86076587124250   10.44366645551085
H         3.76720904365703    0.26752699111194    9.09386656567356
H         2.33646489092717   -0.76690402822940    9.18476617173020
O        -1.65319959246920    3.22870637498573   12.51108363744940
O        -1.35965217434864    2.50663437528382   10.40117968157119
C        -1.81594994389207    3.21970269632806   11.26415312256578
C        -2.80064701628807    4.37207217103385   10.81265284377696
F        -3.75684750733993    3.91956852049754    9.98568647855016
F        -3.43708518227574    4.94130478207760   11.85287591160364
F        -2.15850551123637    5.35925433114174   10.16878833166713
C         0.62319123936823    3.16517016656649   14.47392192964230
C         0.11638977880548    4.43846256393238   14.72127595558795
H        -0.89952791950102    4.68024010380852   14.45019580073103
C         0.90133558319805    5.43866140812161   15.27429509870585
H         0.47416877844629    6.41572698540660   15.45020861592839
C         2.22577750255798    5.19463223293769   15.58677249439061
H         2.84060210987890    5.97244954606589   16.01570731757441
C         2.75754325367814    3.94550143802318   15.32346464623788
H         3.79703157862984    3.74256575318650   15.54095319319895
C         1.96800242951026    2.94945517658275   14.77095064121664
H         2.43217537245330    1.99449497702744   14.56837211999563
C        -1.87260992753300    1.63557431526311   14.89934167161373
C        -2.71019424977193    2.81795735043273   15.24487376673395
H        -3.66371768264979    2.54159935582238   15.69551686850727
H        -2.88241947763119    3.43888747408016   14.36705554943944
H        -2.15359979775102    3.43667969192481   15.95307094909129
C        -2.16315126708690    0.45953731580315   15.70285251895072
C        -2.50573932706346    0.59261841974317   17.05961517683699
H        -2.52836072731648    1.57248490846099   17.51076094977993
C        -2.75226743967639   -0.51348106898689   17.84649461983630
H        -2.99398645655756   -0.38257822673536   18.89121316063997
C        -2.69587942576109   -1.78774773374540   17.30371527126535
H        -2.89833646825271   -2.65105395739252   17.91951818054180
C        -2.37906839582973   -1.94137749037963   15.96367409864436
H        -2.34066668703840   -2.92922787144251   15.52881718186513
C        -2.10493344644294   -0.83967701612214   15.17921493272384
H        -1.88592479970067   -0.97497894870084   14.13408890524154

