62
CSD_code = JELSIC | q = 1 | S = 0 | Stoichiometry = C18H33CrO8P2(1+) | MND = 9
Cr        6.39228946917533    2.41552443950880    2.43514507183743
P         5.45156650239748    4.52080105851197    2.46025160557184
P         7.42736245914233    3.16866460234744    4.37658779855327
C         4.69684585395701    1.86191172731441    2.77800727769410
O         3.58451355156430    1.55267596242728    2.95369979058889
C         5.99615269134905    1.08355510376461    3.60559917294900
O         5.85098767464884    0.19202152232541    4.33628117351789
O         4.24687519373662    4.98094852427062    1.49755274267515
O         4.79817003760850    4.54491287227940    3.94418779713325
O         6.33306335030131    5.85682079339553    2.39465738136621
O         8.45772340847251    1.96660071874051    4.60361175003521
O         6.69077289197931    3.37056622831789    5.79514425105678
O         8.42791685217539    4.41481512401008    4.48887250370804
C         3.06357125323894    4.20263780451007    1.33278199397507
C         4.05753039394465    5.67382630412125    4.43287400970629
C         6.05278058855537    7.08445460632275    1.70808950569737
C         9.36680404322254    1.95535202009192    5.71216147622103
C         5.57519647884672    2.62676232422221    6.26671766058950
C         8.12067985233402    5.71448562412507    4.98171425119783
C         8.45533787344823    2.39910775568662    1.45978789546682
C         7.91693594380843    1.08247724117663    1.54622089648462
C         6.72960632255249    1.04007683573193    0.74878131047219
C         6.50646622268280    2.33902680798174    0.22513506273044
C         7.58302823700351    3.17913637638955    0.66786116107949
C         9.81034089365853    2.83192808516056    1.91351788265299
C         8.62322648120922   -0.10513381804863    2.11034315327051
C         5.96377542203635   -0.19356867579515    0.39789781811457
C         5.53445278186257    2.69641428700799   -0.85352366307209
C         7.91321071216593    4.52649724672470    0.11248141058845
H         2.38580588711705    4.81011859484047    0.73391636511441
H         2.60436197148906    3.97672059451524    2.29498124005813
H         3.28075109169835    3.27124484353778    0.81242772179175
H         3.32059149597096    5.29050392950940    5.13705755286490
H         3.55104356360974    6.19628339749817    3.61963970964134
H         4.73063748846648    6.36187649968194    4.94536970122089
H         6.97524356120843    7.39738141425470    1.21966601914221
H         5.74772513253002    7.84064432379040    2.43186987438459
H         5.26735118016785    6.95433992582521    0.96749017788112
H         9.57834855544815    0.91039184444151    5.93332899719751
H         8.92341961718653    2.43420941573849    6.58552163954795
H        10.28747711879103    2.47336897901791    5.44442383197339
H         5.25872069854900    3.11414380424651    7.18879760344751
H         5.85399288488365    1.59365770035650    6.47756436469105
H         4.75968721567066    2.64951013179662    5.54137788978357
H         9.05780134967292    6.12694646591143    5.35494197731754
H         7.39703070544498    5.66012224688359    5.79306128032573
H         7.73742683860639    6.33922348471292    4.17637349099986
H         9.78242576989032    3.81834595465660    2.37291680549029
H        10.47938123582534    2.88067541489947    1.05172933425898
H        10.22836901420016    2.12831274225544    2.62671470777136
H         9.14944293099921    0.15519034848245    3.02479607964410
H         9.35062377481346   -0.47913984574358    1.38788469829313
H         7.92611039333644   -0.90867833647170    2.33434445826078
H         5.98194067033494   -0.91444042761582    1.21244511378584
H         6.40797884244635   -0.66627360239564   -0.47955882847587
H         4.92519595001412    0.03537627575294    0.16877314857084
H         4.66412519303777    2.04455167531290   -0.83327069609150
H         6.01318068125587    2.57926516147602   -1.82770772978588
H         5.20407412437250    3.72996153558974   -0.76877161749545
H         7.02192216105918    5.05127007277948   -0.22434436845979
H         8.57545662962916    4.40606584530055   -0.74803824517161
H         8.43077283519501    5.13883008654244    0.84813756015776

