73
CSD_code = JELWED | q = 1 | S = 0 | Stoichiometry = C32H37ClOPRu(1+) | MND = 10
Ru        8.55205473481104    4.98970000972239    8.96935360844310
Cl        6.36980022339833    4.67795518414050    9.84085124575057
P         8.54252222408610    6.03315460165007   11.06255914978405
O         9.95050234644457    6.82387285138162   11.07091053736368
C         9.81845974321657    6.22618969784284    7.64130330760787
C         8.61495835146120    6.97042510032596    7.88296767846225
C         7.52140280085600    6.22725531443661    7.32521158525094
C         8.04548441916279    5.03095123897998    6.74272868150556
C         9.46529253683333    5.04093848421310    6.90549415373906
C        11.19185541096732    6.77752193531192    7.83901992849146
H        11.25924213079318    7.30356533222023    8.78804291566338
H        11.41385123785094    7.48644694753779    7.03935006584680
H        11.94759121582770    5.99698727722911    7.82145812373756
C         8.61123620474997    8.39846646810601    8.32285590436375
H         9.17200712524627    8.52948115041375    9.24606338477953
H         7.60623167995835    8.78119912692526    8.47221304726761
H         9.09788095099777    8.99834663089083    7.55157366305222
C         6.11070158210505    6.67756650566108    7.14316012340985
H         5.97925670997587    7.71671084646836    7.43396490463908
H         5.42131361168929    6.05869786543709    7.72071789041984
H         5.83772441321805    6.57562659533537    6.09251264201886
C         7.24081483259208    4.09206751415247    5.90654821111450
H         6.37530510631002    3.72207435098745    6.45633227736381
H         7.83513304672454    3.24674841728065    5.57095528416007
H         6.87359340298868    4.61918580334334    5.02417406801893
C        10.42277705770946    4.17582591162787    6.15007726276500
H        11.42674488121703    4.21956360529745    6.56540668603384
H        10.47490690147642    4.54233931924544    5.12278546304868
H        10.10658366399053    3.13486187969077    6.10900395894893
C        10.35052528741767    3.95958058275347    9.62653814626307
H        10.93995578466687    3.70588652403489    8.74992916193444
H        10.95096524620213    4.32689800428540   10.45101983219620
C         9.24975794811018    3.12637529407470    9.93795465303883
H         8.97642662069985    2.93669552075122   10.97418457396385
C         8.49852474142489    2.57603118963740    8.89238904913273
H         8.98744004961805    2.46861436745292    7.92563728424154
C         7.30357177820823    1.77848291403488    9.05420154184247
C         6.77667138932715    1.11347706137255    7.93758184101204
H         7.28441556420430    1.18875263825357    6.98660457986225
C         5.63026075171238    0.35341386196072    8.03865225317042
H         5.24182356900273   -0.15259322664241    7.16793840595826
C         4.97695420611012    0.24210229311459    9.25661189425895
H         4.07622553892658   -0.34666541523324    9.33555247367214
C         5.48606714039594    0.88804326420124   10.37312281948735
H         4.98003096305299    0.80091492110621   11.32239200676934
C         6.63356222318322    1.64818078263212   10.27973748145997
H         7.00554156442281    2.14872501766611   11.16102056520456
C        10.42102042092544    7.73872323564126   12.06107558674983
H        11.42162669673072    8.03334473250730   11.74472325139370
H        10.47671885693687    7.27250475039889   13.04517949149720
H         9.78095332373467    8.62097581273660   12.11589462145982
C         8.56492141988194    4.95527477280715   12.53208687031696
C         7.36162261633421    4.49634005644395   13.06291129939598
H         6.42859002742557    4.80638334091413   12.61582670120731
C         7.36969298811334    3.64620371345978   14.15368465544819
H         6.43587149114058    3.29123031121647   14.56198119570761
C         8.57111766666257    3.25339873432430   14.72348415718653
H         8.57354452508997    2.59320908911199   15.57691289314478
C         9.76989154850294    3.70862852686657   14.19865591783182
H        10.70613154898267    3.40556232070546   14.64216525021979
C         9.77004487597596    4.55151694840328   13.10112931063232
H        10.70751160757495    4.89672221010291   12.68756868009570
C         7.30467980976047    7.27490292154003   11.57862302825771
C         7.36423623957666    7.74756152013650   12.88803417257611
H         8.08678098802685    7.34106269820939   13.58231743018894
C         6.47646272859836    8.71899907709284   13.31331884065316
H         6.52646673194409    9.08001413606815   14.32922700221273
C         5.52004080115947    9.21739992919747   12.44334863247793
H         4.82518652751652    9.97091456271904   12.78031048493304
C         5.44624001549030    8.73397606259133   11.14781715102391
H         4.68788227334113    9.10462919127483   10.47483281324279
C         6.33648071064016    7.76675266328959   10.71585437841053
H         6.25933464660829    7.35832712086343    9.72187186718330

