63
CSD_code = JELWAZ | q = 0 | S = 0 | Stoichiometry = C30H29PRuS2 | MND = 8
Ru        6.26505964537493    8.49055365053176    1.41591851857892
P         4.71157302956231    9.06752634471287    2.94626733689832
S         4.89598999795271    9.39998925641164   -0.34594172692536
S         4.82695315782708    6.73019974845377    0.60263030022329
C         4.13112343623332    7.88673279049068   -0.42811949672523
C         3.03193379457106    7.63156940038346   -1.23702201419476
C         2.07284753595819    7.41516197819456   -1.93918841013249
C         0.91481880526224    7.15936250830081   -2.77742152367130
C         0.78818100580784    8.28833267093993   -3.80700683530180
H         0.67854950911495    9.24761913109473   -3.30615565059582
H        -0.08122988044009    8.12084379471584   -4.43931820038577
H         1.67459321919876    8.33021910145028   -4.43577052802790
C        -0.33298292813627    7.11746003180575   -1.88528826389907
H        -0.24509537799713    6.32287671036550   -1.14777152736709
H        -1.21727073752094    6.93482985095068   -2.49230584780174
H        -0.45413849267787    8.06302375454102   -1.36196909011822
C         1.10057869490754    5.81134168342342   -3.48514693537709
H         1.21232641370884    5.01157132043014   -2.75653237153915
H         1.98931390082372    5.83056795118275   -4.11174542843161
H         0.23647990915145    5.59751892052647   -4.11069777783094
C         8.15473887680059    7.34105447290083    1.82458410614372
H         8.25584149361029    6.28653524190753    2.04639862393506
C         8.21143666397451    7.92153560182306    0.52570211631402
H         8.41598616786643    7.38808922292415   -0.39335414764272
C         8.20742865975384    9.33105377230835    0.68268575439640
H         8.33344326740374   10.05368723219208   -0.11315441729689
C         8.10549463396690    9.62940667275328    2.05956043399501
H         8.20838419301409   10.60661638991066    2.51223075814017
C         8.07740101823368    8.38626293640267    2.77036219375875
H         8.13575803587229    8.28203711654409    3.84705406686629
C         4.36300301703722    7.90553659506344    4.30328354958260
C         5.15405783214385    6.77116445785925    4.42677691937943
H         5.94553646908719    6.60624873035033    3.70391214986882
C         4.91437851400952    5.86256755314384    5.44243286623940
H         5.52837704379281    4.97856459972094    5.53430154067598
C         3.88090679759076    6.08568698379889    6.33670940439646
H         3.69091244226113    5.37768159046481    7.13010025026616
C         3.08078131584406    7.21153842196360    6.21028148563082
H         2.26923514481363    7.37753365437426    6.90407652115179
C         3.31510389991190    8.11989705426347    5.19547213331722
H         2.68590292642171    8.99292272572890    5.08175215083299
C         5.14579858385612   10.62250229249948    3.78695477022590
C         5.19097449534218   10.79608569557508    5.16379417569404
H         4.93506587682932    9.97951076640109    5.82354727872387
C         5.57549055569384   12.01766557777365    5.69140445500940
H         5.61161410193180   12.14890324237916    6.76329159871808
C         5.91560832658620   13.06680158157500    4.85473528897864
H         6.21237318899690   14.01726007010787    5.27340620596176
C         5.88849675631804   12.89312198123721    3.47909657651959
H         6.16627925269373   13.70671456736359    2.82459775895760
C         5.51597196409921   11.67368376113869    2.94820512957187
H         5.51895925964799   11.51069638889191    1.87505751571439
C         3.00596017237916    9.37368662740384    2.36283824717020
C         2.51183455100074   10.63818924166983    2.06462618082874
H         3.10911392632453   11.51538228993210    2.26735283312706
C         1.25086051038997   10.77404482696237    1.51175335599806
H         0.87096702334283   11.75965203114894    1.28472653757782
C         0.48035876124076    9.65547155114599    1.24362956176711
H        -0.50195647847840    9.76909630965737    0.80835694280280
C         0.96811479042594    8.39280133781513    1.53785373141483
H         0.37158013649435    7.51697003470836    1.33071511461087
C         2.22468808317229    8.25052496402648    2.09333666167891
H         2.61193311101902    7.26521323201823    2.32183709711729

