87
CSD_code = JELZUY | q = 1 | S = 0 | Stoichiometry = C27H48BrN6NiP4(1+) | MND = 5
Br       10.28227925899703    4.00227555387960   10.95242028772165
C        10.14938173554216    6.38171073040050    6.83041903039691
C         8.72027912439517    6.42544389997196    5.14826078333182
H         7.91331368745169    6.13169889308358    4.50771360944654
C         9.53998491410920    7.51500029877825    5.12874891769988
H         9.55849780044507    8.33229596709555    4.43651157522905
C        11.30623564315740    7.06400403670787    9.44738633391638
H        11.85564076460948    6.59155576541592   10.27323486192741
C        10.01142102770429    7.64361537753328   10.00789898068351
H        10.23273001107260    8.29579160412410   10.84909117666705
H         9.35810391190839    6.84534979359314   10.36803618821918
H         9.49328705454831    8.22792572402090    9.25051432822798
C        12.15419115981242    8.14126702982344    8.78093564619000
H        11.70556561991483    8.46361313074950    7.84309153350204
H        13.16910538915502    7.80348259310788    8.59087233826624
H        12.21092647507110    9.00000090187071    9.44657378234286
C        12.57481205957913    5.16928339817551    7.61774560244950
H        12.95976001100165    6.07961460149265    7.14202141771007
C        13.49944033469450    4.72035963559630    8.74494077550887
H        13.02638758580112    3.95968313679671    9.36515917783252
H        13.77688480085356    5.55132375901080    9.38810970227699
H        14.41167669988991    4.29982462424007    8.32740192421291
C        12.41498612197005    4.08940952208433    6.55344692397073
H        13.38491643202185    3.83794754271691    6.12973973646053
H        11.77512870801350    4.42950573458836    5.73735951258670
H        11.99234172834442    3.17908285102026    6.98161352421008
C         9.75696181045768    1.91525203937642    6.56283225062145
C         9.27454467605407    2.85257088608612    4.61992457373678
H         8.91683054128679    3.57613003300010    3.91530811094879
C         9.89842780802487    1.65408950608291    4.44702769699398
H        10.16362428533734    1.15619681442992    3.53638518422008
C        11.35730127007072    1.14324533312463    8.93773138452240
H        11.93567610154302    2.06948613875138    9.07456688962000
C        11.20107434420893    0.50064117477664   10.31538605366883
H        10.67397606273362   -0.44726055296866   10.25687840840979
H        10.67063720885612    1.15902600128240   11.00144584257766
H        12.18638311489032    0.31252451786451   10.73484440983412
C        12.11502103196434    0.24888381755673    7.96339492361372
H        13.16030010967165    0.21905424382465    8.26404428570287
H        12.06132579825781    0.61478066451277    6.94153915459329
H        11.73698781850764   -0.76689825670807    7.97544459364790
C         8.46705814051622    0.36687598348451    8.48239232751010
H         8.25899518324517    0.24061274682456    9.55181035930914
C         8.98885432953784   -0.93897648518154    7.89329271562430
H         8.15533615234568   -1.63057088400738    7.78399625957109
H         9.72290949486934   -1.41031587676183    8.53843089179207
H         9.42838977826123   -0.77611259373503    6.91103230440940
C         7.18200896302004    0.78059481394686    7.76621567606834
H         7.32700910979357    0.77929003409711    6.68605556126474
H         6.85208154202130    1.77238905418862    8.07592275851103
H         6.38382806584035    0.07777003744075    7.99506897345711
C         6.24737973442755    4.26882469041887    8.11978982355583
C         6.01114831215333    3.86531783926770    5.95969705792325
H         6.26949479989888    3.72015348641552    4.93017341000970
C         4.81780563222494    3.78482497968323    6.61090115759166
H         3.84808107443087    3.55999052997524    6.21514221349944
C         6.29123133740181    3.91373176631425   10.99779090516705
H         5.21756229605861    4.05589082341017   10.83448242655497
C         6.61773857017365    2.42472316298501   10.96683933505686
H         7.69739821574311    2.27134823916948   10.89815037550716
H         6.12471529150082    1.93620648430252   10.13056042650167
H         6.27305860497322    1.95391031968829   11.88422583246194
C         6.73575256804479    4.53260914603384   12.32098475049734
H         6.20569110618418    4.05302025197785   13.14054079820196
H         6.52673226473882    5.59877800561978   12.36529112009485
H         7.80235960210968    4.38016070988695   12.47689894244943
C         6.50642004013118    6.53557088463672    9.69148319645667
H         7.05619005548052    7.01863844527409   10.50801481358297
C         5.00904078041654    6.59254101451259    9.97494044738971
H         4.66272373433033    7.61361700176277    9.82688108148587
H         4.77732256689678    6.30988346210358   10.99733533305302
H         4.45729730986817    5.94427863887678    9.29590653117993
C         6.82694764370805    7.25875939121696    8.38460131957723
H         6.18929989475818    6.89833533452830    7.57775637287338
H         7.87050774873365    7.12043364789509    8.09859227162584
H         6.65093305587542    8.32657787196087    8.49529474049715
N         9.10391262551742    5.68067539065994    6.24179771783017
N        10.41446647152943    7.46852443330706    6.17128521001553
N         9.16922156662943    3.03170143605777    5.98348632183318
N        10.18395059859276    1.09162042046727    5.65379067831498
N         6.94913219779136    4.18935783721191    6.92009657899790
N         4.98417787686355    4.03808680541790    7.94026380683380
Ni        9.36150159457948    4.09274695332651    8.95083214681568
P         8.63162519106371    4.25231225162703    7.01777130450615
P        10.91688608668588    5.65781979625953    8.30263920284726
P         9.69143668014824    1.77488242614913    8.37096215252348
P         7.15223606895558    4.77980082443264    9.60148093547111

