89
CSD_code = JEMBAH | q = -1 | S = 0 | Stoichiometry = C27H48Cl3MoN6P4(1-) | MND = 7
C        23.25544994556783   22.80064867159653    4.61986067039858
C        21.38564292644860   21.66776121825357    4.42632081291339
H        20.71166051415809   20.86877832603407    4.18730035258010
C        21.14842770902109   22.91507689206047    4.92337172735380
H        20.21269017381383   23.36465138768445    5.19765881645987
C        25.28545953220538   22.74836972612540    6.42080396338905
H        26.36841951902195   22.74710665109890    6.58238296376577
C        24.73325003296072   21.38932863405938    6.83000390975479
H        25.07460888782491   21.12027917499751    7.82929598796619
H        25.08792469448293   20.63061439943160    6.13253485667579
H        23.64224432779510   21.39502987909319    6.83434708934842
C        24.64411879377763   23.83476985765965    7.28083516147147
H        23.62072438397707   24.03199881776700    6.96268816591093
H        25.21320123631537   24.76074420728799    7.25883858605586
H        24.61925325490397   23.48657483232005    8.31409925178982
C        25.19582303112924   24.79693755969814    4.41383475715833
H        24.60593636622599   25.16202739125093    5.26297814637422
C        24.55225495917042   25.35245557957854    3.14862471227612
H        24.68402801752264   26.43465797038088    3.12934013428310
H        23.48541752982954   25.13826774677926    3.14238851888262
H        25.01957900504482   24.93515720537313    2.26075826063295
C        26.64575613713668   25.24528755931141    4.54669002335478
H        27.22278052367202   24.89097541363617    3.69490062276483
H        27.09895430230720   24.84887569709212    5.45430438955289
H        26.70025644352182   26.33441210541215    4.57320278794931
C        24.89203489754773   18.50355819738645    4.87387922336394
C        22.77440935115448   18.61106217533960    5.44109185197160
H        21.76342840015797   18.96614909322286    5.49226260066170
C        23.40344004442892   17.59884152418637    6.10520743746045
H        23.00038837207594   16.91173743128974    6.82528626961660
C        26.43006095748030   17.53799780456388    2.81111086042781
H        27.28782999549077   17.71438775589523    2.15312362428826
C        25.16923121619308   17.48909487309796    1.95757452567342
H        25.25623221053689   16.72312256103403    1.18700216915438
H        25.01430296741434   18.44806595419151    1.46142946341424
H        24.29385958504921   17.25919702521836    2.56777379538170
C        26.60748989192287   16.20412426919090    3.53421216870560
H        25.93817972933529   16.13166450112825    4.39073020896044
H        27.63225850184376   16.05788747104845    3.86618861611438
H        26.36643444736088   15.39668904861245    2.84205523234134
C        27.65747485434489   18.59533116711885    5.18081363200577
H        27.47782893203108   17.53206028357570    5.37861509486247
C        27.49427477980115   19.33804967476824    6.50211706159413
H        28.30542852762945   19.05468088945326    7.17328450498209
H        26.55206833349521   19.07068308530859    6.97591801899853
H        27.54011105082057   20.41289478510822    6.34734778739598
C        29.05465061767547   18.79956843362874    4.61029600563658
H        29.22788401155137   19.85824474752913    4.42629775671694
H        29.18130985191572   18.26293304691898    3.67152271696947
H        29.80279721650994   18.44502032384008    5.32060472390351
C        23.32802888599981   20.04062966604159    1.03305354114083
C        21.72793333823711   19.12470220482776    2.22235228986175
H        21.17129806779896   18.80101033199271    3.07986977808302
C        21.52419004200675   18.90764431095744    0.89179751151086
H        20.73074882044735   18.37072018933566    0.40724281705585
C        23.99858605931742   22.52772288446138    0.12609207203754
H        24.79225065919780   23.27744251544447    0.03025935307401
C        22.95809905200608   23.02865165131841    1.12135995322569
H        22.62322909525552   24.03086735624188    0.85694636562070
H        23.39503987223222   23.06474849735490    2.12111893781444
H        22.08788510222987   22.37033637882368    1.13707128645197
C        23.34030090389919   22.26943718082483   -1.22512847469538
H        22.76346987221157   21.34643505378131   -1.20119107563086
H        24.07287670677515   22.21060833626317   -2.02453992972741
H        22.66493440283330   23.09501484670397   -1.45249589310497
C        25.77869316958612   20.23817695178029   -0.51702005194546
H        26.37502508991295   19.49505477248384    0.03384696630344
C        26.76388101519042   21.24860734392972   -1.10190395408759
H        27.47591146308455   20.73502692458071   -1.74738801002349
H        27.32087453139987   21.73638431039283   -0.30379741646718
H        26.25595301098402   22.01417807356593   -1.68512165215044
C        25.00535728868571   19.49906177804783   -1.60750886427226
H        24.67988028751110   20.17234385251963   -2.39479205760374
H        24.13019124172929   18.99618554560747   -1.20524511765753
H        25.66206101575256   18.75375659478031   -2.05630422587606
Cl       27.89211944806098   20.12027253778886    1.90792501302748
Cl       27.72089490094362   22.12887831320144    4.60551229808408
Cl       26.68957996776681   23.26505001356587    1.69656178563656
Mo       25.92410041254061   21.25622841673037    3.02848739827936
N        22.74289540238543   21.58561717396886    4.24263471657080
N        22.31599233120000   23.60757674691130    5.04284800418979
N        23.72625310139630   19.18563994240203    4.64087949612379
N        24.71494990773009   17.53984490501255    5.74403633888228
N        22.87732740418975   19.86477719957794    2.31203246692403
N        22.51971056517418   19.48321503595257    0.16353596047515
P        23.89476188922027   20.51373006636661    3.54736247400530
P        25.05858498031212   22.94690447896619    4.55712823052819
P        26.34646229446058   19.04750806716441    3.93731627927167
P        24.83299740873651   21.03557652368925    0.87765536939851

