55
CSD_code = JEMCAG | q = 1 | S = 0 | Stoichiometry = C26H18Cl3N4O3Zn(1+) | MND = 6
Zn        4.38396413998235    8.74219603679314    4.26031798420758
N         3.12980037664864    8.95665760536576    5.89228340277730
Cl        1.65139220921213    5.21661599176045    5.46511957048873
O         3.01843451184102    9.98451395960584    3.11808742187855
Cl        2.33246633792685    4.58898496654067    2.73658451866667
O         3.28673723150288    7.15300144071451    3.64093780635103
Cl       -0.27744833710853    5.67618916006207    3.36096605951525
N         5.69186801740783    8.51978163125596    2.66762609025620
N         5.28832294038446    7.37367077815196    5.55366574854262
C         2.07249277498248    9.73019269232963    6.03236902115408
H         2.00713976443638   10.57760902612000    5.36551250741476
C         6.57526211095362    9.52786603850166    2.59202392198700
C         5.71632393724993    7.57189551850392    1.75563793579746
H         4.98431608924735    6.78549790800094    1.87122923070854
N         5.60905213998492   10.41122460514117    4.57999587550118
C         6.52556462971852   10.53834630950652    3.60733712693354
C         4.40931034861796    7.04731111073160    6.51611841786994
C         3.26332463674407    7.88915854123454    6.69789300956980
O         1.27272354923637    8.08603907709846    3.62093057730810
C         2.03886517436687    7.13224874011104    3.65598615193749
C         7.43095995041087   11.62049091919382    3.55082720515470
C         8.38254894956668   11.68506917744215    2.49157877791674
H         9.06375520440705   12.52190859664267    2.46989157573505
C         2.31229805433864    7.56450706782452    7.68929977034657
C         1.43205358951635    5.70214263625353    3.76519918161246
C         8.43362298258102   10.72425059401526    1.53696446554066
H         9.15673474853016   10.77649041713387    0.73747900727948
C         7.53285816965680    9.62003018333950    1.55900489522304
C         6.57714598583523    5.44597370971894    6.11525374372089
H         7.44859223619724    4.84565954415448    5.90905050239072
C         6.62934924097938    7.57163874201951    0.69565799640192
H         6.60749391616883    6.77199444791347   -0.02696486269698
C         6.33327067002547    6.59694376941748    5.36291482481920
H         7.01673989193582    6.89302010369671    4.57914276103130
C         4.56546171777757    5.90572779274553    7.33282095094649
C         3.59054287710143    5.61364071017504    8.32970906192664
H         3.73240441101020    4.73369561876222    8.93805851467534
C         2.50910578690525    6.41055654015527    8.50150133760864
H         1.76583538774359    6.18254520764093    9.24985694939140
C         5.68893892592979    5.09450448585947    7.10333154810338
H         5.83698536113148    4.20664741301527    7.69957371061763
C         6.38901407873117   12.44566696319921    5.54534058117517
H         6.28808393487208   13.17299400844574    6.33459399388592
C         7.53838262284077    8.59776971305209    0.59278016223700
H         8.25408841501461    8.63200510069710   -0.21505626370183
C         5.54301695763520   11.33297083771802    5.51458019299757
H         4.78993003101115   11.19096530021516    6.27567467097954
C         1.18827349654766    8.39931454070726    7.80771115396699
H         0.42957762746673    8.17049905637301    8.54098118062197
C         7.33821081226706   12.59237883534729    4.56226634907000
H         8.00921329464186   13.43824036656078    4.55356637139366
C         1.07361229565287    9.48843069174025    6.97793145204410
H         0.22280316396956   10.14764550276225    7.03509023966170
H         3.07765950761546   10.11272649239086    2.16735219297993
H         2.20682312065691    9.42475377615152    3.25711342607092

