98
CSD_code = JEMFEN | q = 0 | S = 0 | Stoichiometry = C48H38CuN5O4P2 | MND = 4
C         8.34257015113285    5.25102111203200    2.76406563278960
C         7.30974720711633    4.32589303520981    2.51871676985620
H         7.44891129622218    3.58241527842878    1.74978252543087
C         6.14860654405770    4.37174139949285    3.24161560035526
H         5.34734418482362    3.67145587125381    3.06237442073463
C         5.98961696619959    5.33467843590311    4.24176610464141
C         6.99560331860411    6.27176571746351    4.48594629986806
H         6.83925544747716    7.01685259331479    5.25139055975824
C         8.15354212928870    6.23592667487982    3.75442140641570
H         8.94505379485518    6.94729508462930    3.93553263372194
C        12.18863948092901    6.37194919386663    0.47298328945238
C        11.67311595181392    7.51309212932775   -0.16536549345263
H        10.64502966565255    7.78630652662024    0.01292714388062
C        12.46794126993713    8.25194819654211   -1.00572299085408
H        12.08846517982903    9.12786571985319   -1.50957458738955
C        13.79093390357973    7.86702350931735   -1.22863911241613
C        14.32169746270760    6.74600209679137   -0.58926988284971
H        15.34920729192199    6.47356251953862   -0.77503076938311
C        13.52976555068287    6.01290030201032    0.25677934165379
H        13.91713702706407    5.13925528627253    0.76428988740204
C         9.69275334424900    2.82804612035436    4.49890587399744
C         9.41586236358389    1.72465307291947    3.69442196373475
H        10.17183023233942    1.38303863110191    2.99537294003324
C         8.20009003858335    1.07709770901178    3.79058189838878
H         7.99123769747506    0.22362393033365    3.16166710377833
C         7.25049715901046    1.52824303504983    4.69411674570942
H         6.29804224124969    1.02691900713933    4.77461961474879
C         7.51845534985086    2.63068435319899    5.48810472985154
H         6.77546804053662    2.98202521163050    6.18835383968124
C         8.73174110166394    3.28957672706673    5.38874334639961
H         8.92268927389612    4.16124309628195    5.99717213810402
C        12.42941704442246    2.46715602754272    5.16529040493606
C        13.74151522809042    2.90863397264837    5.32560018147040
H        14.02317204453913    3.87708727671585    4.92981152462516
C        14.66383965971695    2.12837921034799    5.99309959084119
H        15.67577615194296    2.48224053306704    6.12581852183164
C        14.28803522048809    0.89094248747984    6.49242159418114
H        15.00619899179089    0.27995840956455    7.01865267126779
C        12.99240375070405    0.43795279136684    6.31371135055054
H        12.69960666864213   -0.52793766087564    6.69848077634052
C        12.06257361821836    1.21860828287307    5.64965376100444
H        11.05143838983445    0.86020489380667    5.51926777823248
C        11.35287005377934    5.02468972336477    5.35717978034225
C        11.23594278303421    4.87635865825014    6.73760025453094
H        11.13603337127453    3.88744143983569    7.16463416639295
C        11.25664018228695    5.99209739451536    7.55259562043362
H        11.15868195781128    5.87740331683942    8.62208555546132
C        11.40437649924560    7.25628961539826    7.00187806064956
H        11.41680585260886    8.12452848993362    7.64352583674929
C        11.54706171337417    7.40541205678120    5.63285727369312
H        11.67763215247269    8.38844964966311    5.20473618553622
C        11.52471054148471    6.29147843177720    4.81182610658760
H        11.64942677021813    6.39702332223247    3.74258110363697
C        13.57442968645683    2.09378346109819   -0.45887642609523
C        13.33663815601962    3.13617547773582   -1.35297383401590
H        12.50041505137360    3.80136020720992   -1.17565869291139
C        14.16157391240760    3.31761919407478   -2.44516759629893
H        13.97833620360377    4.13058410997399   -3.13143359469880
C        15.22993827594234    2.45826187347582   -2.65090858409131
H        15.88088420923145    2.60147425278445   -3.49997223519996
C        15.46472107855296    1.41800457186828   -1.76716170428388
H        16.29503956269180    0.74695096010851   -1.93158632495560
C        14.64248499756316    1.23107342551967   -0.66913035980463
H        14.83270142741788    0.41901821723704    0.01873539634220
C        13.02439658084263    0.62473619964315    1.95183200864401
C        12.27442168638609   -0.50726402629377    2.24812203091911
H        11.29775122654981   -0.64354539041012    1.80448728149194
C        12.78519594703535   -1.46595471747881    3.10547600165000
H        12.20215229812449   -2.34718340274877    3.32928700741017
C        14.03714432454274   -1.30103133849249    3.67252547057998
H        14.43401675414526   -2.05618163721994    4.33403341160208
C        14.77909137166506   -0.16253062920539    3.39830195111023
H        15.75125763423293   -0.02772545127067    3.84813784663038
C        14.26919888415705    0.80377269013295    2.55502984291631
H        14.83139829696728    1.70600643583343    2.34822385136751
C        10.94605572051020    1.32810921662184    0.09147771015375
C         9.72572189981309    1.97280548452157    0.25966729870938
H         9.67196777499668    2.85138049480521    0.89228972728851
C         8.59739260725646    1.48986132524523   -0.37960597311112
H         7.64733004758386    1.98740470084333   -0.25102902728646
C         8.68715430305770    0.37036859793206   -1.18992918551755
H         7.80643594496427   -0.00605912637777   -1.68844553334061
C         9.90669442700406   -0.26549623541973   -1.36956919990821
H         9.97422878375626   -1.13350341380835   -2.00868318203485
C        11.03782793529603    0.21124869492548   -0.73489926882910
H        11.99388365398972   -0.27521817602048   -0.87469432914129
Cu       11.89121717465646    3.84724588600677    2.07343088671190
N         4.80761492495411    5.34637978708477    5.02453277259275
N        14.60773434732407    8.61998244684090   -2.12066118706536
N         9.54216643022815    5.06010399548048    2.17510550620885
N        10.20643332495807    5.93880214906457    1.54275357754575
N        11.44035030269249    5.56772193261731    1.28513384377349
O         3.95848438396292    4.49827026194603    4.79681026325258
O         4.70335583665909    6.19230994080636    5.89892622172984
O        15.74523920245851    8.22995222727267   -2.31977719551900
O        14.12664654510416    9.61037232437221   -2.64084605392685
P        11.32191312291100    3.58851518618514    4.24013985834398
P        12.40795442814690    2.00113791635460    0.93799264790238

