52
CSD_code = JEMHUE | q = 0 | S = 0 | Stoichiometry = C24H20ClCuN2O4 | MND = 5
Cu        2.94909289031811    6.95124129758066    3.25912071069280
Cl        5.17659221524965    6.82981172563242    3.32566301519449
O         3.04149911673006    7.88073760728959    4.73519774342252
O         0.84901951611482    8.17004045667366    4.58975741002241
C         1.92083234278753    8.34562843660158    5.15245686908342
C         2.01957977793986    9.15021267967205    6.41026821001208
C         3.24209592576167    9.35621461626071    7.03941582142620
C         3.29722951034607   10.10664156309211    8.19973999414219
C         2.13925121986966   10.65068018628407    8.73255969227568
C         0.92037569228127   10.44564988021828    8.10525071320337
C         0.85826374452877    9.69656488964969    6.94533830531428
N         2.42160333054261    8.71661354337392    2.18835811736632
C         3.36998887259043    9.63405482612702    2.02636953888257
C         3.08723173004308   10.89349557326448    1.52897341858543
C         1.77529005877629   11.20139296340853    1.20066751817805
C         0.79925444626657   10.23300245984977    1.36920678224098
C         1.16360435738900    8.99266962416524    1.86845385320926
O         3.02749726304901    6.01176539664152    1.78858854661476
O         0.81198609767947    5.96521246268474    1.80518492914320
C         1.88896020420547    5.66946364418792    1.30621321251400
C         1.97197839168555    4.85048622550988    0.05665457198779
C         3.19923635026518    4.49706840384981   -0.49266239448297
C         3.23926928400582    3.73687368339642   -1.64724087577073
C         2.06151091750216    3.32958778853271   -2.25367011939271
C         0.83784111335057    3.68158171465589   -1.70593337577266
C         0.79077290337091    4.44104011991582   -0.55208198492653
N         2.17142822397758    5.25710652122049    4.29206933989141
C         3.00303504196850    4.24225997109042    4.50618004662460
C         2.55648891826518    3.02367920950541    4.98493945295975
C         1.20235196659965    2.86278121289794    5.23827922598030
C         0.34923164522252    3.93124834288022    5.01600514426003
C         0.87472535254623    5.12178151111722    4.53968619131612
H         4.13286379367553    8.92429166757202    6.60943155438672
H         4.24552593925840   10.26808537927017    8.69105820326203
H         2.18645444501471   11.23604593551662    9.63951628892761
H         0.01888629595707   10.87040812114446    8.52233907766385
H        -0.07783276301065    9.52152704375550    6.43641278190906
H         4.37443383463801    9.34074621771681    2.30414066107128
H         3.87942176712670   11.61499155431220    1.40744096796078
H         1.52062344680188   12.17941599079251    0.81900877492809
H        -0.23213193970576   10.42974376957168    1.12390255734255
H         0.44751494382931    8.19800402296927    2.01958839372384
H         4.10552787880519    4.82397018611649   -0.00616758345616
H         4.19120779578243    3.46059384577971   -2.07630337561114
H         2.09692981400033    2.73594930888217   -3.15575961548311
H        -0.07904849577207    3.36318154412391   -2.18030182762120
H        -0.14860851208073    4.72895586260151   -0.10427561893025
H         4.04760188727382    4.42267593749166    4.28612265607119
H         3.25678259548022    2.22042247427989    5.15002364573411
H         0.82105853517259    1.92043404130264    5.60384249038947
H        -0.70965752427935    3.84973088582207    5.20234926250061
H         0.25952784080853    5.98913767375381    4.34902108103163

