43
CSD_code = JEMKEU | q = 0 | S = 0 | Stoichiometry = C20H16Cl2N4Ru | MND = 6
Ru        6.77192596854547    3.40583860319080    8.14455463237207
Cl        8.57610507898652    3.21597534752875    6.62869132852086
Cl        8.19978171033540    3.83906303993212    9.97843777818767
N         5.64815759453332    2.93385063831891    6.60543323434341
N         6.94182771240956    1.43891541714057    8.22352176670997
N         6.66227197582250    5.37831220237258    8.07437714816319
N         5.31253266468906    3.68273783666091    9.42724135549484
C         4.92558373915589    3.77472803662983    5.86286231733777
H         4.85214660229794    4.79218260099670    6.22925081174843
C         4.30925859093235    3.40374713364288    4.68800803408702
H         3.74504395335221    4.12753492549813    4.12226492815016
C         4.44227827605255    2.09041067266329    4.24353140225982
H         3.98467754859141    1.77100786736356    3.32060831939260
C         5.17437582078757    1.20797249475166    5.01040316613425
H         5.29487704604657    0.18443376910941    4.69543912011008
C         5.77173151998530    1.64716760534200    6.19211723578827
C         6.53053631419585    0.80225643997045    7.10105629661269
C         6.81687320503220   -0.54697469901674    6.89109641724949
H         6.49903742760727   -1.03326008858978    5.98328046725190
C         7.53403436532118   -1.24511801948570    7.84222760563857
H         7.77881668572055   -2.28487843781177    7.68962035212543
C         7.94292902443914   -0.57891625860240    8.99225194122404
H         8.51274201871043   -1.08340110140734    9.75556867791979
C         7.62547671873217    0.75705592287307    9.13973286033058
H         7.94397556361618    1.32358407318084   10.00718255474753
C         7.40578183056730    6.16807259358797    7.30296368641313
H         7.96395140619617    5.66963451327477    6.51881773777451
C         7.49495135749889    7.53241846909591    7.49857209649539
H         8.12423409857869    8.12740368038057    6.85679689146364
C         6.78073400435146    8.11107229425469    8.54186887140480
H         6.84098856387105    9.17165637231570    8.73127316580881
C         5.99975258544558    7.29978399963792    9.34087991141892
H         5.44686951477836    7.71794829811048   10.16617283554867
C         5.95470339783237    5.92814818654246    9.09004295675082
C         5.16288176614005    4.96645949665174    9.84119573901951
C         4.28522514007497    5.29400964389414   10.87492360648979
H         4.19021396786584    6.31873992615780   11.19475705825850
C         3.55150489440511    4.30170941205824   11.49122594193214
H         2.87770898352502    4.53533048418762   12.30031038118274
C         3.70204700204149    2.99074684616639   11.04517115814366
H         3.14775289608946    2.18325964474783   11.49575926273016
C         4.58703252213300    2.73323039176356   10.02140590250743
H         4.73686894270654    1.72224972491835    9.66030304475983

