111
CSD_code = JEMVUT | q = 0 | S = 0 | Stoichiometry = C43H54Cl2F4N3O3PRu | MND = 5
Ru        9.04441925547052    1.89024085243115    2.75942968342704
Cl        6.68375850455674    1.68568088324000    2.77124381597120
Cl        8.96713000552847    2.91590975567055    0.68373461125133
P        11.41766784822513    1.84817329722487    2.45612722694957
F         8.59192356208057   -0.05201019612448    1.50856768005151
F        10.19230412726958   -3.23235415051801    4.64508838855127
F         5.46343651883074    1.59399812964743    5.43317764865804
F         9.83344786107874    2.71279689525862    6.73697981340053
O         5.01923695746560    5.20574792357018    1.54922460355398
O         4.70464886019073    7.14787459886267    2.40706993689380
O        10.11513839567592    5.69901115096332    5.09077438877541
N         8.91671447697021   -0.74700177473929    4.25543733485930
N         8.18544345243454    0.90490589966859    5.46180906896157
N         5.34928180317903    6.12366204601515    2.26325230962618
C         8.76796750913330    0.61514734716713    4.28798230803173
C         8.53671751861601   -1.36793154507230    5.53014555813527
H         9.43332739281328   -1.61842172234912    6.10637666398425
H         7.95351823756798   -2.27401162430668    5.36029684221511
C         7.74065405458279   -0.26756829683270    6.20727697112294
H         6.65929737908244   -0.40273159429043    6.09340102351192
H         7.97859138158683   -0.15705114751243    7.26763048150019
C         9.24690775253823   -1.58385408842866    3.19875489898492
C         8.98113494959363   -1.29808944998688    1.84984200653635
C         9.11382586786647   -2.21718570178114    0.82803486471811
H         8.82094218980127   -1.92050342242481   -0.16652844645768
C         9.59934555736135   -3.48276685064519    1.10182880781624
H         9.70471147948154   -4.21082864192111    0.31509839398140
C         9.96867489953440   -3.79043896212133    2.39856290492455
H        10.39165813389910   -4.74871249109076    2.65371551829580
C         9.79124613614100   -2.86349659277045    3.40628881484668
C         7.70971692074895    2.16169081023622    5.88973928374171
C         6.35645113301112    2.50411597872929    5.82772491483652
C         5.89916284438292    3.74087338240681    6.24860859545049
H         4.85122934181090    3.96996772353391    6.14335232768738
C         6.78418346172779    4.64229474056010    6.80978598389530
H         6.42967474272492    5.60481753789551    7.14201909979922
C         8.11300934410069    4.29732719330214    6.98543436054587
H         8.80706358041834    4.95719219545911    7.47917666403391
C         8.55340670515761    3.07301477019634    6.52196380145560
C         9.24328624554924    3.50007083707530    3.78094269631966
H        10.10840206595567    3.62019151462388    4.43501302632007
C         8.47981613422743    4.70226692871998    3.72363488869415
C         7.30074224674742    4.83220731834071    2.97992099155056
H         6.93777975353167    4.00257121188813    2.39025303314812
C         6.57594065250534    6.01130408466191    3.00448147560433
C         7.00813175491546    7.10433986467735    3.74855555554440
H         6.41863524323797    8.00803010685895    3.75447267384120
C         8.19417837428341    7.02454470656855    4.44867357616208
H         8.52433371215766    7.88996106807166    5.00092341083364
C         8.94499065466244    5.85312406821158    4.44278564317524
C        10.75114687690069    6.78059302458925    5.76534931130514
H        10.01624885590437    7.31427162484795    6.38529528053987
C        11.80183230092124    6.14481936727214    6.67137358430652
H        11.34313108063181    5.40965067434928    7.32709364235273
H        12.28414961162900    6.90800140453450    7.27497331948923
H        12.55132239760757    5.64044829380453    6.06819275610734
C        11.39749954912656    7.74325402074571    4.77056191709136
H        10.66140182147358    8.14165629570971    4.07708152603208
H        12.15773667014439    7.21990232298371    4.19626131356567
H        11.86242100933328    8.56823762199537    5.30316539557269
C        12.55409877692386    1.57458945455993    3.92043589311673
H        13.53362820500015    1.32598533357687    3.49703164636014
C        12.02753257125037    0.39307207697599    4.73429993927342
H        11.84201092968680   -0.46927515104617    4.08886815323177
H        11.07783548412732    0.69421489665167    5.18252066092949
C        13.00722547854657    0.01104931066533    5.84000541166608
H        12.61309020591602   -0.83301176919528    6.41027402492935
H        13.95593193323853   -0.30285092607438    5.39657860685813
C        13.24510540901290    1.20172056254049    6.76192217817516
H        13.96886701578416    0.93859965228753    7.53594229909435
H        12.30752846306700    1.47277492186062    7.25056369763022
C        13.74847586530873    2.39448079701146    5.95676385000029
H        14.71339937025266    2.14864939459214    5.50504126033393
H        13.89824689402695    3.24993578569269    6.61899474797998
C        12.74687596132278    2.76173200373950    4.86154241799720
H        11.79975791782813    3.02473302063485    5.32799756930586
H        13.11613461476619    3.62990018277635    4.31696828496218
C        12.13246220757723    3.31768301558422    1.54652580962755
H        11.70627413434867    3.20967379906475    0.54151509392186
C        11.59932832755814    4.64991177101796    2.07503205435301
H        10.50885972607211    4.60392001505451    2.09368095972282
H        11.95093695389738    4.84207477132560    3.08884318256065
C        12.03662777451192    5.78917838943106    1.15847405812096
H        11.65930420301675    6.73820316677529    1.54531992290738
H        11.60103420124773    5.63753749740896    0.16939433330344
C        13.55683267376484    5.83549986495061    1.04345622849410
H        13.99415132299918    6.03518364960725    2.02561094435904
H        13.85835253514886    6.64381313273500    0.37432175339875
C        14.08028184144177    4.50350989821911    0.51815604971789
H        15.17029847478016    4.53101944620742    0.44488302391647
H        13.68082803728103    4.33195018384816   -0.48380244451911
C        13.65695378107944    3.35706499983663    1.43624104588743
H        14.10911172308037    3.50622656975621    2.41783675914266
H        14.03878397495629    2.42037888216579    1.03032484410976
C        11.88774481982687    0.37749775419931    1.36184751313317
H        11.16733661054540   -0.39512824863330    1.66485432441634
C        11.62006226229317    0.70633556859359   -0.11032375259296
H        10.63028260971801    1.16073107244204   -0.21481513682964
H        12.36164967535633    1.42338084893772   -0.46685695368325
C        11.71789934791687   -0.54468255530616   -0.97898138999381
H        10.95499461494914   -1.26558276665894   -0.68173513352807
H        11.53973558731805   -0.27632564875275   -2.02199298446130
C        13.09044562571356   -1.19045572162719   -0.82901400138215
H        13.86052936236273   -0.50310351316742   -1.18668594002715
H        13.14691442659932   -2.09883314782813   -1.43225994468280
C        13.34697841937943   -1.52208530818707    0.63632565782731
H        14.33234535234943   -1.97986454326753    0.74991635583645
H        12.60130765199536   -2.24481879251665    0.98039322228731
C        13.27183153838396   -0.26419977057266    1.50387357684665
H        13.46896274789724   -0.55271021400282    2.53633860136191
H        14.05511520463386    0.42438516764338    1.18551755271965

