50
CSD_code = JEMZAD | q = 0 | S = 0 | Stoichiometry = C16H27Cl2N3PRh | MND = 8
C         9.22475017144287    7.30775638904911    5.61620132221158
H         8.67488152541904    6.46078650712701    5.18940546901812
H        10.07887666652322    7.53041945315031    4.96719645466476
C         7.00850008687703    8.22446513048918    7.05630839095878
H         6.37605619132075    9.06132988677104    7.37233916430219
H         6.36111987234335    7.41770380628489    6.69285660414648
C         9.22900010233473    9.88318356285285    6.69819118075848
H        10.08418715463583   10.19099397253747    6.08783399147103
H         8.67561814563121   10.77700116374755    7.00382049664225
C        10.48773091872753    8.01058847711952    7.53045369584695
H        10.94187256538867    7.62417438307436    8.44874400090887
H        11.27778511962870    8.30182597905133    6.83405440588151
C         8.60698446705850    6.60571203872295    7.83022766226560
H         9.03752386126395    6.19982422495626    8.75135778901329
H         7.98470093020587    5.83765564381167    7.36161281792075
C         8.61174104693910    8.78743757338247    8.74835529981405
H         7.99303601865788    9.66163449825806    8.96505819440106
H         9.04318512505779    8.41147876380522    9.68179475296575
C         5.98311602092101    7.64614728164808    3.02071123677727
C         6.93469401524727    8.09280380789019    2.05467029059450
C         6.55068600910977    9.42416660521744    1.62064345932182
C         5.43311171730087    9.82095836686025    2.38059685159119
C         5.11309617941273    8.74454486239797    3.30050043152739
C         5.84819033288327    6.25509523729712    3.55408056823919
H         5.44130543980608    6.25207308136647    4.56312613685089
H         6.80483912918139    5.73745827829248    3.56122689919157
H         5.16494988842601    5.69402052737801    2.91327707499102
C         7.98305926304450    7.27117701444166    1.37589354404117
H         8.22631226038044    6.38234437514446    1.95279574423583
H         8.89237589593968    7.85318643501203    1.23776880814099
H         7.62410511637696    6.96052170651593    0.39296315876558
C         7.19632914870680   10.14192212361151    0.47886576781416
H         7.00142022285147    9.60121244881532   -0.44887501864410
H         8.27526058393045   10.19726935981643    0.61981928028664
H         6.81221846591352   11.15413227349088    0.38263481983889
C         4.61311179266134   11.06319023352077    2.24337552848901
H         5.06141648239392   11.75436513728771    1.53452594867646
H         4.51885404097399   11.57039118432296    3.20327767410553
H         3.61201696259231   10.80194835871308    1.89680061750231
C         3.89346088043969    8.72649949055796    4.16539987027945
H         3.00713721285475    8.57925001495306    3.54541005603384
H         3.78653850472666    9.67245308933483    4.69275745329382
H         3.93912522569579    7.92455891489652    4.89821789301492
Cl        9.36013097244487   10.05653293294007    3.47322108754902
Cl        6.62961144157814   11.15323000296240    5.26105431383861
N         9.70167947485383    6.94069248180601    6.93426282838085
N         9.69950922247117    9.18018319329120    7.87177100219349
N         7.77088490734277    7.73957046986699    8.18882303305962
P         8.11735169117839    8.80230231409458    5.67815416391531
Rh        7.12605152865314    9.43202694204079    3.76373778292525

