103
CSD_code = JENBOT | q = 0 | S = 0 | Stoichiometry = C32H45B20ClO2P2Ru | MND = 6
Ru       -0.13069543999258    0.11211555787123    3.99954489136662
Cl       -0.81148900895925    0.57873241200229    1.73935194202410
P         1.60330742254742    1.63617061148405    3.50328735835833
P        -1.72914475349426    1.83446892114915    4.65377914873951
O        -2.01706255305171   -2.20719376086643    4.12410835207279
O         0.67706784079751   -0.82837772522369    6.71156285948105
C        -1.30848751798972   -1.30765959497054    4.06951632018058
C         0.40533375725562   -0.39363205971636    5.68176827663541
C         2.64174671088908    0.80209655499243    2.20808769838193
C         2.68402134979057   -0.69216109553889    2.43044945643117
C         1.63522588533437   -1.58167787437133    1.63875900896486
C         2.81461100412885    2.11822326117689    4.78765185600135
C         4.06686456945750    2.63350099317214    4.46783811108026
C         4.93742394332886    3.02146620249512    5.46903169663701
C         4.56288098384297    2.91765036241835    6.79911358699430
C         3.30736356970912    2.43416190652467    7.12494093200838
C         2.43961948054218    2.03834799471331    6.12334269794579
C         1.33236100186518    3.28891558869472    2.75651269490499
C         0.89211515928519    3.42574592116864    1.44168773293746
C         0.61242575577644    4.67781325403865    0.92303377809791
C         0.75519845320056    5.80886757376514    1.70904098359662
C         1.17600857614198    5.68165910894922    3.02274674989383
C         1.46003392361629    4.43277270333658    3.54504384294835
C        -2.08134003633419    3.20848308158902    3.44041243518195
C        -3.19092362322451    4.23778744809224    3.53932952052361
C        -4.69656544611343    3.82694410578955    3.83592102168088
C        -3.38170070055816    1.11324089709384    4.94389250770463
C        -4.12334858106416    1.25157960695963    6.11205428421298
C        -5.37115478876799    0.65999351071108    6.21267824413757
C        -5.88932090359255   -0.06965669280961    5.15603230629760
C        -5.15546343701327   -0.21237831271887    3.98831358721703
C        -3.90841142009445    0.37218526395654    3.88454746118952
C        -1.23660348291089    2.56586907938539    6.24381161302364
C        -1.23527496777564    1.72390696338739    7.35670175399708
C        -0.72864319059543    2.16135269613822    8.56498232626444
C        -0.19572989023408    3.43681304280868    8.67245489074077
C        -0.16886269980260    4.26763961323600    7.56544907077091
C        -0.68065533033446    3.83479415893763    6.35495366634726
B         1.35343245733120   -1.37657577427001    3.32301499721569
B         3.02297415485358   -1.37088315171449    3.94694020726810
B         4.17446084177730   -1.52116138947985    2.61272604971588
B         3.26874932090199   -1.64231733836287    1.11244343037755
B         1.12985412867629   -2.94026240155748    2.51682797168613
B         2.04530438968172   -2.84825460575306    4.03434976180702
B         3.78695872080350   -2.93572670518135    3.60959943155039
B         3.93151192665667   -3.10062563729059    1.83370516046987
B         2.27720507572144   -3.09398231956422    1.17571423845299
B         2.60327372321381   -3.91963338533312    2.71236998528900
B        -4.33568341798787    4.22483754026029    2.22078329179556
B        -3.16119109696254    5.51430127009579    2.38573724458828
B        -2.88125405328804    5.82775467729041    4.09978813791533
B        -3.86253370054008    4.71676716356790    5.04015124511309
B        -5.84371065323930    4.73917946473370    2.95835903863929
B        -4.86582012280600    5.88417741065572    2.01267000216942
B        -3.96222442345716    6.88900950058059    3.18033359866102
B        -4.40089703147728    6.37806730962798    4.84010383444395
B        -5.55584157090758    5.03246328765389    4.67770179837662
B        -5.63729949263755    6.39965457343654    3.54646665266149
H         3.65094222143065    1.22359598225503    2.20267478559462
H         2.18056737473849    1.03131023080147    1.24073818308732
H         0.95926389062832   -1.05899817424963    0.97412881459065
H         4.36428313810223    2.75005423619567    3.43531495701807
H         5.91063772212166    3.41167796068425    5.21038257772324
H         5.24672479263247    3.22016070430006    7.57768050692157
H         3.00005671591317    2.36308718973615    8.15732611599359
H         1.45666382213361    1.66651000432895    6.37828036028209
H         0.72698398362299    2.55410350266886    0.82674516070358
H         0.27126282841005    4.76751859942315   -0.09734449263879
H         0.52895630301516    6.78358227472504    1.30529725838541
H         1.27957039111795    6.55800258933251    3.64524216256952
H         1.78165176708337    4.34330084266362    4.57349796318699
H        -2.18220093270995    2.65445945126517    2.49576725898217
H        -1.12772734045952    3.74353186730365    3.35977934134628
H        -4.88415427031986    2.78439446259276    4.04136061710127
H        -3.73765753476737    1.82717701162900    6.94029254423612
H        -5.94092963714669    0.77330688301766    7.12284478355483
H        -6.86236469127587   -0.52881044407500    5.24188360108145
H        -5.55308700998666   -0.78217739545791    3.16220337833881
H        -3.33481146513077    0.25886227901282    2.97219475768950
H        -1.62389710482987    0.71709779353404    7.26365236513227
H        -0.73860370935251    1.50252944224411    9.42035629219013
H         0.20438749602746    3.77756741435496    9.61548714782734
H         0.25520089131805    5.25777916416310    7.64166642175237
H        -0.64992468924824    4.48953937387095    5.49886868145508
H         3.28047013457929   -0.62217217030150    4.82322575551786
H         5.15007898875707   -0.86269238511021    2.63409305698926
H         3.52846714126761   -1.05359738298608    0.12874282535360
H         0.03545053100743   -3.33570854597478    2.35390505137439
H         1.62765466563812   -3.26691594017102    5.05136010968496
H         4.57558491194264   -3.40262413029340    4.34582287524610
H         4.80976272592824   -3.68724758903714    1.31808408038098
H         1.90692369508270   -3.56182867476337    0.16375458090569
H         2.55288052371462   -5.09012558175600    2.80544199419021
H        -4.23728256988547    3.33082113731838    1.46587809062439
H        -2.24356651360749    5.54847289526775    1.65025638717811
H        -1.78580805484158    6.08115769672677    4.44787469359417
H        -3.49976190939276    4.12931261913552    5.98921906222738
H        -6.83498056510528    4.19683428164557    2.63514454244304
H        -5.20106050047550    6.28734993249579    0.96100823846891
H        -3.65882970123481    7.99882674290412    2.93658022301587
H        -4.41973508259501    7.12150297738238    5.75064510032882
H        -6.36259833739776    4.68281997172593    5.45834901994802
H        -6.53034582823194    7.16390013021241    3.56167202502644

