98
CSD_code = JENDUC | q = 0 | S = 0 | Stoichiometry = C43H47FeN7 | MND = 5
Fe        5.30065642358097   11.71536264076719   21.13207427192617
N         4.79434688688275   10.02425633773045   22.18009412654938
N         5.64297227256335   10.41360095265693   19.88448153846855
N         6.63429198099089   12.66617986776778   19.89686605770815
N         5.44418816160942   12.76297575891070   22.44183780873041
N         5.63512296401495   13.43859309626810   23.31930867012045
N         3.81487061383256   12.29413088678545   20.47935522262616
N         2.88741001905896   12.48255160270809   19.87737786076307
C         4.83807617054280    8.91265922884915   21.46157044446948
C         5.31813930321154    9.10059631469736   20.12958725090518
C         5.47597067814944    8.13159972376381   19.14586143673508
H         5.15485344092084    7.11971387869140   19.33729946245206
C         6.06003891201707    8.47243414091488   17.93498778985180
H         6.20283740115885    7.72429250653432   17.17097472054424
C         6.49309718778880    9.77473729597375   17.72695180278098
H         7.01050610051979   10.04600074844205   16.81996622048315
C         6.27435418367832   10.73437775679918   18.70614598404697
C         6.74225388131945   12.08668913131417   18.71013050353498
C         4.53840415361641    7.57125062928502   21.98802722856972
C         3.34920507789571    7.28581226530272   22.65182088730708
H         2.60415239597314    8.05594085662263   22.75734566771727
C         3.11312643173996    6.02177328008915   23.15858315907971
H         2.18429749328865    5.81647071518772   23.66997907624262
C         4.05961347969376    5.02185256597900   23.01193222681605
H         3.87454723316380    4.03528550730198   23.40987836606454
C         5.24835252972218    5.29536045082945   22.35582934564257
H         5.99590365780668    4.52318449978663   22.24530571615261
C         5.48916110344045    6.55888385319983   21.84979667302410
H         6.43198110868000    6.77392217070215   21.36765384890349
C         7.22220752822717   12.73232582493668   17.48104016182135
C         6.47447946023031   12.56899227318329   16.31170077480890
H         5.55939686052754   11.99556303272530   16.34294997530881
C         6.87307323096323   13.16333632510568   15.13035331305484
H         6.27929238204631   13.03190306342099   14.23764207218409
C         8.02377824356099   13.93407102157503   15.09188236439918
H         8.33466760388123   14.39998880623843   14.16874386223453
C         8.76755109724041   14.10899269232801   16.24670440978326
H         9.66336787303425   14.71196983259964   16.22646349427491
C         8.37284211613297   13.51760783385141   17.43249460272371
H         8.96805240917988   13.66239168048335   18.31932310160288
C         4.42492682078751    9.95929045774969   23.54247342743218
C         5.37640442010618    9.54211680082375   24.48470760764019
C         5.02025003484096    9.49840477578841   25.82403304862961
H         5.74639764956894    9.18116725563176   26.55658455332446
C         3.75384745744672    9.85929521374646   26.23788366828216
H         3.49116562294331    9.81621386021063   27.28444843667904
C         2.82966882747202   10.29080029854617   25.30706406070065
H         1.84686778527292   10.58917345984952   25.63771711722909
C         3.14046814733155   10.34629022049705   23.95678008847365
C         6.79506992139528    9.21287575507874   24.08069784601303
H         6.86210706058837    9.19765557209172   22.98801243806083
C         7.72944621588690   10.31459500251872   24.58760337468528
H         7.41451566032130   11.28086749474908   24.19970173046746
H         8.74991090707934   10.11941506443923   24.26399097428288
H         7.71529744944566   10.36186656000634   25.67382234568748
C         7.23569979526082    7.84361150186171   24.60078876730502
H         8.20806123580025    7.58336406565794   24.18698904149345
H         6.51993576512480    7.07660139498445   24.31269983422830
H         7.32044428245934    7.84531823856970   25.68430348804659
C         2.11171055787123   10.86146681608619   22.97543152402303
H         2.47288124703700   10.66579632180462   21.96014332738201
C         0.74279421541815   10.19314262846203   23.12992842977796
H         0.81640233350608    9.10851584374687   23.08732126849377
H         0.08748629424136   10.52096815385668   22.32572782251854
H         0.27742554522285   10.46347132562117   24.07433717085982
C         1.96061734785148   12.37555535928579   23.15051281130592
H         1.55805249398733   12.60581967969549   24.13418367744833
H         1.28910365573183   12.77584544013203   22.39440660892232
H         2.92456141552273   12.86856142148814   23.05162626347391
C         7.15026718675985   13.95913343210369   20.10932345023879
C         6.53302210627664   15.09785641097059   19.57477224127921
C         7.12175501580579   16.33532567286217   19.79047672137498
H         6.65780978079466   17.22198078157145   19.38715045337753
C         8.29564855263322   16.45099884687716   20.50730439527899
H         8.75411858085131   17.41919915473164   20.64465252709253
C         8.87111724349453   15.32789492457183   21.07166899776949
H         9.77425089315582   15.43534841775795   21.65084594085420
C         8.30317172278526   14.07464612274516   20.90579362852083
C         5.20715306403793   15.01184617319449   18.85847751721460
H         4.97152210278230   13.96083220641236   18.66821247177685
C         5.21991805287222   15.74179682439968   17.51503642060556
H         5.31044897715099   16.81614862755166   17.65277517140358
H         4.29208685996363   15.54681902733186   16.98182008458466
H         6.05010914653837   15.40151846482359   16.90031998796865
C         4.11720535275824   15.57736347926215   19.77460464819409
H         4.13536406239878   15.06872503304013   20.73707753687852
H         3.13687230222259   15.43318549846075   19.32667696791445
H         4.27285931783160   16.64009475929834   19.94484492538894
C         8.91777035483234   12.84820641081594   21.54384312540855
H         8.11091007584805   12.11694151786206   21.69978244625570
C         9.95699676951639   12.21136684830700   20.61527775624948
H         9.49233714915288   11.85466607020763   19.69831045286585
H        10.42898460820521   11.36367863681230   21.10823379522062
H        10.73050851234912   12.93314927874010   20.35757548098298
C         9.54317631132261   13.15321880846491   22.90439063775700
H        10.45498087626057   13.73672471759554   22.80066955406876
H         9.80025447377218   12.22433934203778   23.40784863445048
H         8.84222033021936   13.70139747791508   23.52929177572977

