112
CSD_code = JENDIQ | q = 0 | S = 0 | Stoichiometry = C47H52B10P2Ru | MND = 8
Ru        1.68603693648605    6.78425370520289   10.76712720789892
P         2.60402513080376    5.98299734674145   12.69349220458480
P         2.63589609131022    8.85928891141717   10.88681498740211
C         0.62340642335096    4.85040516737038    7.29087319792321
C         0.59906593962315    6.44922268578433    7.49769828673376
C         0.53001091303562    4.15544588705888    8.67195833848496
C        -0.68133458927391    3.21031210057615    8.74729129699889
H        -0.69328475169379    2.68800810996092    9.70063536768093
H        -0.61466065022701    2.46524425588004    7.95779206160671
H        -1.62165239423107    3.74393639280581    8.63793224329479
C         1.76945341148216    3.31099200866549    9.00500288829253
H         1.63952394043013    2.83216973710900    9.97435231094836
H         2.66658779079437    3.91982253580462    9.06216649559113
H         1.91550261908650    2.53597681417448    8.25568412787218
C         0.35878863666510    5.33672966344501    9.61704182783719
C         0.41712861641594    6.61159747279508    8.95135374692429
C        -0.18071469026862    7.57717576341571    9.80375157783922
H        -0.46130991815452    8.58499788682035    9.52683143848084
C        -0.54262907699351    6.92697958225999   11.00902681697785
H        -1.17491926846803    7.35533103998806   11.77596913497911
C        -0.22909813014645    5.53328389019700   10.89452509474754
C        -0.74528629785743    4.48123438164256   11.83022157057703
H        -1.77109852489502    4.22521088040454   11.55129269653967
H        -0.75923348198488    4.84131959174824   12.85929645476275
H        -0.14136223554344    3.57733469060542   11.78534864282154
C         3.03243749767590    4.20192906697779   12.50617480560491
C         4.14669895526379    3.84556860888470   11.75142905864871
H         4.79746275056338    4.61800684851478   11.37014996789243
C         4.42516882853386    2.51780077802421   11.48735745753003
H         5.29645111725804    2.25799335249382   10.90402633813248
C         3.58800033559461    1.52101755462165   11.96201019275286
H         3.80095446484506    0.48364358552582   11.75015399752367
C         2.47515407989590    1.86398193243262   12.71035417996745
H         1.81651603615783    1.09345257249147   13.08671593280816
C         2.19834605374870    3.19277560117105   12.98122890636180
H         1.33361635080419    3.44092015773347   13.58017731557525
C         1.71914641279172    5.89216080695045   14.30121151595205
C         2.18664925454840    5.10198944833831   15.35095801463831
H         3.08206588104271    4.51014632707654   15.21872547257643
C         1.50013324027888    5.05612826333262   16.55014022299623
H         1.87335857603676    4.44328368324439   17.35813360237587
C         0.33483351717474    5.78809856664602   16.71859513644008
H        -0.19798187850062    5.74929139198218   17.65736267500428
C        -0.14868819955863    6.55856490323706   15.67581354127679
H        -1.06459557324013    7.11989517207227   15.79554167500475
C         0.54124047688275    6.60493498245274   14.47681881177801
H         0.15846118293047    7.19411579965104   13.65467436022870
C         4.24924521696423    6.62566110138361   13.21166810923808
C         4.65594922277700    6.80873592924149   14.52798512763096
H         3.97396277583339    6.63202036426843   15.34543841640734
C         5.93922839810745    7.24521915266008   14.80956814963944
H         6.23918226568003    7.38100759335126   15.83871721684777
C         6.83401044159925    7.50707028796245   13.78768619613235
H         7.83770374623081    7.83461830465890   14.01531441184869
C         6.42462791261727    7.36972997573163   12.47202154102956
H         7.10289187824223    7.60230164679568   11.66377575957980
C         5.14032340605679    6.94612458526823   12.18915527245508
H         4.80016309754944    6.88546276619057   11.16330142594886
C         3.30992759870240    9.45710838757231   12.48764766947712
C         2.48191318930757    9.29886089518279   13.59530938449961
H         1.50944899567990    8.84780638033940   13.45432756557341
C         2.88831323658955    9.69545964271054   14.85402520897745
H         2.22880305732553    9.56734237799037   15.70080891041644
C         4.14675434587917   10.24834210981599   15.02488801893087
H         4.47506679788055   10.55769369667856   16.00621666164895
C         4.98640906022314   10.39069279248981   13.93408171236938
H         5.97479817839423   10.80660811042167   14.06602803075705
C         4.57575993503491    9.99849617392960   12.67160517833457
H         5.25099449684423   10.10318066942718   11.83583185619232
C         1.47373053111400   10.23336605179265   10.49931879513679
C         0.85891174917172   11.04677135718184   11.44130372051499
H         1.08391081850843   10.93157354413836   12.49134934972269
C        -0.03568119776967   12.02572469871968   11.03902014805123
H        -0.50404861359646   12.65618027168581   11.78148087153046
C        -0.32840384939643   12.20116568558718    9.69809919773367
H        -1.02703661735108   12.96530940330464    9.39060718927591
C         0.28049596432892   11.39227818056347    8.75031399739508
H         0.05743456087932   11.52004927928170    7.70106646527241
C         1.17249608961281   10.41656027580969    9.14896458427122
H         1.64355947984258    9.77781047709622    8.41224647149584
C         3.93939650044173    9.41469665900133    9.71582455588879
C         4.28993249133308   10.76333470422663    9.65142158305788
H         3.82032147299953   11.47188335413401   10.32093065993009
C         5.22454840080364   11.19664018188590    8.73125336157361
H         5.49185460848394   12.24283867295482    8.68993278619066
C         5.81023799407008   10.29535799090958    7.85470423046662
H         6.53362707366025   10.64028268249927    7.13061476673369
C         5.45544607419329    8.95876987298588    7.90186693963065
H         5.89482099228093    8.25523035153972    7.21047980877930
C         4.52416188897898    8.52261125811173    8.82914798641297
H         4.22607399526993    7.48460800072727    8.85973478206790
B         2.08441694222264    5.73097320205930    6.98423165201525
H         2.93662181448843    5.65618192798570    7.78132157087938
B         1.57434958423916    4.42500964170882    5.93780680466188
H         2.15941254068016    3.40537470084609    5.95679618720157
B        -0.18165007855721    4.42354062528680    5.83013987150379
H        -0.76385379513331    3.40354512395904    5.77633958285459
B        -0.81213612624383    5.72045861502849    6.81595477226678
H        -1.74211033049827    5.65314873875043    7.53323093775287
B         1.54924515888293    7.27285781903618    6.34712386939992
H         2.11966302328005    8.24565813193032    6.68621341244004
B         2.17520480638337    5.98232968749794    5.26638002345826
H         3.21824213459667    6.07091730879987    4.72905731614533
B         0.77168274609283    5.17352642998107    4.53068893317246
H         0.83494733611881    4.68839401083478    3.46012551044803
B        -0.70973855500243    5.97953328852204    5.10078204588387
H        -1.68711731811997    6.06336439491296    4.45069722538865
B        -0.21046490894791    7.27073390886545    6.24363193541901
H        -0.81172178469285    8.24293671546182    6.52745352436204
B         0.75529440988401    6.94970651202590    4.78930969397696
H         0.80571521902626    7.71974433430755    3.90040975723078
H         2.95215771949020    6.24180907827913   10.11668809964353

