94
CSD_code = JENFEO | q = 0 | S = 0 | Stoichiometry = C43H47FeN3 | MND = 8
Fe        6.35388862202242    4.64375570576541    4.50274301397435
N         5.52773174327481    2.97725520643812    4.63718308451144
N         5.49901545087609    4.71581772102573    2.84700804489997
N         6.88092870900625    7.32939796151882    3.16892413633840
C         4.44604982825549    1.17573309627391    3.32536258279116
C         4.92870669403827    2.54651062541401    3.53484575493547
C         4.85373583035178    3.54026414672311    2.51846188715432
C         4.15588109672549    3.38699641487101    1.31772801472652
H         3.59097019473921    2.48514844720836    1.14513395953791
C         4.20482934387919    4.38255306466778    0.36867988225841
H         3.70655440878570    4.27376572171916   -0.58196500555966
C         4.91320737222625    5.54134802581585    0.66590851209040
H         4.99917724117726    6.31820840313859   -0.07621784913538
C         5.50235435474168    5.71252320445433    1.91395859260957
C         6.13205772826782    7.01063019464234    2.18104535115989
C         3.73671864412428    0.47186917135406    4.29985545015798
H         3.51086989755333    0.93903107119470    5.24352507416245
C         3.31269381564089   -0.82314681739608    4.06813821495020
H         2.76170430845852   -1.34663797118536    4.83583392609510
C         3.58619898185576   -1.44933805395051    2.86391801879398
H         3.24958543355471   -2.45964348039106    2.68505655692213
C         4.30995676030925   -0.77210516476997    1.89552944049826
H         4.55055005121866   -1.25896669234693    0.96132799802247
C         4.74171887417850    0.51969710454084    2.12478820338369
H         5.34683284520772    1.01988674505380    1.38323242515118
C         5.85865226996424    8.13366144530893    1.25592583042278
C         4.55361704008467    8.53764597393852    0.98589716660832
H         3.72717490468566    7.99781115958936    1.42548523092174
C         4.31610550308765    9.62944587423563    0.17162471700960
H         3.30035454497185    9.93645120802760   -0.03113886043277
C         5.37537908420155   10.32970639756155   -0.38224564753151
H         5.18686754744864   11.17822882125569   -1.02336420813764
C         6.67586661435482    9.94357329225251   -0.10427334619167
H         7.50455552151250   10.49246378424898   -0.52723379114463
C         6.91666098040362    8.85815736058081    0.71805946393532
H         7.92798254364089    8.55820104977421    0.94730162554932
C         5.64649978945516    2.21861894725917    5.79519012569732
C         6.59432825505989    1.19394645429055    5.92420138188578
C         6.62852283652973    0.46098622296049    7.10099862431790
H         7.33878182599671   -0.34521498268509    7.20517974753813
C         5.76396290089208    0.74032864426550    8.14123905140377
H         5.78762591995087    0.14400898974105    9.04148264937805
C         4.88713778104284    1.80663400657960    8.03972221398463
H         4.24348702960738    2.03876962579781    8.87368403077521
C         4.82651841016009    2.56858972044365    6.88611993672127
C         3.93094898705307    3.77832860480194    6.76259077199934
H         4.46187242131197    4.47652663230340    6.09696267095046
C         3.68077211320146    4.46306653347519    8.10591594122493
H         4.60919927035750    4.58201580016139    8.65972915114022
H         2.98600690719634    3.89009843672677    8.71590975472474
H         3.24330738745504    5.44684322325781    7.94531285427794
C         2.59384434306203    3.43770851053720    6.09783473144992
H         1.95315703818506    4.31710665029343    6.08110378126992
H         2.08064587291744    2.65002213165391    6.64696629199383
H         2.74786433081978    3.11338849407406    5.07236626962264
C         7.60033423249095    0.92719700480669    4.83089127350090
H         7.47033443984392    1.69892848363946    4.06377409196051
C         9.02645732614006    1.02438858780177    5.38353343452816
H         9.26137906664414    0.16018648115878    6.00016359121110
H         9.74486052036168    1.05767847360949    4.56655448599186
H         9.14426023174041    1.91430885734900    5.99567038525320
C         7.39677312768102   -0.45089158861759    4.19869215839834
H         7.55679895389071   -1.23419195877507    4.93633263781108
H         6.39044881246065   -0.55459935369350    3.80648276675914
H         8.10321048511826   -0.59713233891693    3.38411441427394
C         7.20660915417360    6.47188517863099    4.18866886825470
C         8.21999137506256    5.48240281637209    4.04069686327003
C         8.42898902612211    4.59337271371568    5.09806398822847
H         9.18877320160898    3.83446537351510    5.01610075490162
C         7.64871147353380    4.67568341534939    6.26259505359662
H         7.80644366831541    3.96573002640718    7.06157891461769
C         6.75428188768488    5.74127623648642    6.45802097786389
H         6.23968402010606    5.83379749387619    7.39999172087342
C         6.52030451917293    6.64991129178529    5.43055178752212
C         8.98958984684430    5.33654952538395    2.75236479138943
H         8.61237922151700    6.07640236641819    2.03976036156869
C        10.47955631574070    5.60218568304738    2.97539537708941
H        10.89960372382277    4.88228709284601    3.67395904265148
H        11.02110941429772    5.52411656819316    2.03510972280851
H        10.62911935966927    6.60094691929522    3.37959769462973
C         8.75867297379446    3.94258820163470    2.16490960084679
H         9.22779040061232    3.18210318227437    2.78286143545247
H         9.17485475565711    3.87618694313502    1.16235317830781
H         7.69180822225926    3.73334178760518    2.12061645746453
C         5.49623591000275    7.75412739796773    5.51247314804547
H         5.80503705629260    8.52694343766979    4.79816778892544
C         4.13341184358192    7.21366632345941    5.06773251373501
H         3.73565419561487    6.53830075503839    5.81909984628664
H         3.42710587938769    8.02783602671751    4.92224029016999
H         4.23296778851901    6.66009143060654    4.13724997050076
C         5.39999750612785    8.38056351433596    6.90164065088970
H         4.75276965150388    9.25416551179274    6.86818048718851
H         6.38176298680008    8.69290084259558    7.25005144018462
H         4.98130922064109    7.68042643094325    7.62060460125925

