46
CSD_code = JENHUI | q = 0 | S = 0 | Stoichiometry = C24H16ClCuN4 | MND = 5
Cu       -2.09643464054312    3.07436641575641   20.39403057121190
Cl       -3.26486125173807    1.62078665125558   19.09237994273625
N        -2.06166742837435    4.40504769863497   18.54235496651277
N        -3.31207169474708    4.51509210967979   20.92151166464599
N        -2.33121440194391    1.49887839229960   22.02694120775471
N        -0.26587435175086    2.40173619630484   20.55843348005960
C        -1.49627004331027    4.22449539394885   17.37397981839652
H        -0.53660829117415    3.72441079899998   17.37863190057700
C        -2.07482462748402    4.63788685558380   16.16852831967287
H        -1.57038881347375    4.44286798616554   15.23491950685699
C        -3.27721281322213    5.30000551049528   16.20262756592532
H        -3.74825162548535    5.65531840890519   15.29682246640932
C        -3.91317993179578    5.50076070968143   17.43977406126529
C        -3.26532144055512    4.99961359402316   18.58981274139603
C        -5.17370360423023    6.14600031087155   17.57400585154737
H        -5.64874077687503    6.52948177612832   16.68223449168044
C        -5.77683558726675    6.25500395222080   18.78301369142932
H        -6.74148980562965    6.73246831067664   18.87940250439117
C        -5.17917655388543    5.71048115347346   19.95462933750377
C        -3.91934813203009    5.08216093096507   19.86063294031529
C        -5.80062219170091    5.73835895723333   21.21499755475098
H        -6.76695780768921    6.20874845388947   21.32530122930138
C        -5.16068142594114    5.15941755852548   22.28737079849938
H        -5.60693758790561    5.16576649670274   23.27005532165892
C        -3.91426885446017    4.56515934261614   22.09610270891391
H        -3.37447382867442    4.12487540159094   22.92246640697875
C        -3.40548299357397    1.04623830426712   22.62560587462631
H        -4.18648971610542    1.76983494893662   22.81922999553010
C        -3.56867870700974   -0.29161358041967   23.00272884781301
H        -4.48539989564897   -0.60956642940409   23.47456858016375
C        -2.54313146089833   -1.17525372021437   22.77307692626828
H        -2.61915762976607   -2.21242292600227   23.06820806054077
C        -1.38141964676800   -0.72204998794446   22.12474662606553
C        -1.34147675108503    0.63645117990083   21.74214935822402
C        -0.27984146464785   -1.56707481207856   21.81540636048469
H        -0.32731925889682   -2.60171625367861   22.12401289382655
C         0.79039925128393   -1.09591091220663   21.12987872856038
H         1.61938176017389   -1.74408844231886   20.88397125884813
C         0.83855929501096    0.25327620794545   20.67845926710250
C        -0.22876139364067    1.12388296658870   20.98462443977562
C         1.89501081648437    0.76477693439628   19.90532657219731
H         2.72909668677815    0.12738482787004   19.64985494908391
C         1.84156105130115    2.07478561237954   19.48608971518714
H         2.63699075414176    2.50150400235630   18.89444452296263
C         0.74495261157171    2.85868487961906   19.84129955851981
H         0.68482420318439    3.89738783338056   19.54875641384146

