87
CSD_code = JENJAO | q = 1 | S = 0 | Stoichiometry = C38H42CuN4O2(1+) | MND = 4
Cu        6.13762573167120    9.79106770671267   32.19723711060366
O         2.18157637787011   10.99628433116265   32.38883923973536
O         9.58046091635920    8.51749008868811   30.27906759560474
N         4.37797422902017   10.78227689152876   32.13117064777342
N         5.24541220560083    8.77536473597972   34.01829653314303
H         5.97910313834474    8.10748131886122   34.24463166931574
N         7.86264186635820   10.75949645062371   33.28338380395847
H         7.36304738817930   11.43836563592109   33.85390262709412
N         7.57298275305989    8.78326746497904   31.19313496112530
C         4.16362011609693   13.84677279569188   29.85835176906323
H         4.56121240104035   14.07431360960018   28.87295422170644
H         4.57610594473617   14.56277547953687   30.56527211126935
H         3.08672420657508   13.98388268142357   29.82229431607442
C         3.89162996312480   11.41300299274766   29.29949092291120
H         4.17392112130170   10.39645085096469   29.56449091889345
H         4.21505607722775   11.60502459491186   28.27998147657443
H         2.80733228067084   11.48771985646517   29.32352219629214
C         6.07023474455811   12.28077570658914   30.15678065318907
H         6.38789164642615   11.29608300300143   30.50290556739741
H         6.56370948437655   13.03417367771576   30.76635136711048
H         6.39706438191645   12.40885052779394   29.12829616393832
C         4.54806907217837   12.41728862642959   30.24833497707453
C         4.11726853206404   12.15268113406960   31.71429259159562
H         4.69372788707959   12.82455285677905   32.36080671718568
C         2.59833235269095   12.29567582582042   31.98006379688737
H         2.37719010616171   12.99802612467697   32.78740748254268
H         2.02226604061505   12.57468890286883   31.09749560919538
C         3.26726216450658   10.23184646268805   32.46118168307640
C         3.08952652022570    8.83689092897824   32.85487354160023
C         1.92164673516431    8.18189182370362   32.46655298533535
H         1.16405558179337    8.74111084526528   31.94065699345002
C         1.74780894125447    6.83761850954992   32.73023567859865
H         0.84338514335619    6.33934666487021   32.42077717390769
C         2.74399155052953    6.13224638031042   33.38737957936210
H         2.62055586685195    5.07931263042156   33.58752737443611
C         3.89118001407506    6.77958704810444   33.80842859566158
H         4.65460809908713    6.23215247685490   34.34327920309588
C         4.07475867086229    8.13694852769611   33.56748567327404
C         5.20997847307359    9.80404355066872   34.99331727217086
C         4.04840628594798   10.46208322158600   35.37436258386228
H         3.09446227572068   10.16857794857845   34.96619190530022
C         4.09883261210390   11.47928568239962   36.31234619051357
H         3.18676810971251   11.97997882604999   36.59796999392953
C         5.30048734466055   11.84070342378675   36.89518577435017
H         5.33610463771134   12.63085707017460   37.62799742890908
C         6.45618727166977   11.16244135398889   36.54831993328356
H         7.39807955655211   11.41089575522714   37.01510783222412
C         6.42342971410747   10.14745836897873   35.60278481805614
C         7.66375216837822    9.40637534369806   35.26261754527865
C         8.12119301301061    8.40005045502059   36.10164053073487
H         7.55628808232563    8.16662487580246   36.99221352971569
C         9.28548601076600    7.71171647455553   35.80786798524484
H         9.63194369129730    6.92978694013271   36.46449789098983
C        10.00950729743928    8.05070295533862   34.67862129692515
H        10.93263807555559    7.53936197474018   34.45402543431842
C         9.57143753335784    9.05926953988791   33.83720073972759
H        10.17394758266938    9.33426277277843   32.98623039631168
C         8.38762980416220    9.73175008053506   34.10892665007868
C         8.65555505426399   11.38523617011747   32.30049865727776
C         8.98292982660638   12.73040234424549   32.42804732257443
H         8.61971506165765   13.28155964771281   33.28408385845358
C         9.77557175067935   13.36075112190282   31.48610491546900
H        10.02028472837621   14.40458874807611   31.60587603862649
C        10.27136019242704   12.64865623308435   30.40518474290888
H        10.90765659357769   13.13238347607121   29.68184424375100
C         9.94129788470073   11.31633043677212   30.25370323772174
H        10.30503289245595   10.75320832016066   29.40881068598096
C         9.11416737920526   10.67979661241176   31.17814613014975
C         8.71316337672997    9.30063021920726   30.91424183121004
C         8.96823820410098    7.24125282894351   30.11881751833853
H         9.54265032805875    6.50906310067778   30.69178105464193
H         9.00736315172568    6.97632866510760   29.06214766260159
C         7.53048199627878    7.42814782770041   30.66224987720832
H         7.32910825155831    6.73796789312092   31.48930250458499
C         6.40894908955246    7.24611499962035   29.60612962547854
C         5.05520387166406    7.40906106938376   30.30210737254728
H         4.24991121050514    7.34648072329848   29.57508628051662
H         4.99757508997484    8.37550166005850   30.80455173931456
H         4.90512281051295    6.62804623998488   31.04387584841276
C         6.53785220782510    8.29020068815024   28.49562334047568
H         6.45684691918899    9.29496427695214   28.90469375262270
H         5.74421298928058    8.15081841605888   27.76658126522631
H         7.48762556564908    8.20575014217638   27.97330429337039
C         6.48672589853617    5.83426168919671   29.01968282113369
H         5.62980574743549    5.66150404908765   28.37403819335000
H         6.47230292751987    5.08829347766016   29.81070913854772
H         7.38456920672658    5.68678613915127   28.42661478652596

