80
CSD_code = JENPOI | q = 0 | S = 0 | Stoichiometry = C33H36N2NiO8 | MND = 5
C         3.53288495542558    2.86685431737431    3.23895194999929
C         3.00037999270606    3.27462702488143    5.37735080934506
H         2.37504672291823    3.33489836708352    6.24219690242779
C         4.27548987462269    3.67824548895184    5.19130732802375
H         4.98162985846660    4.09144867388483    5.87999309990477
C         1.27372116963979    2.19406999323643    4.01577735695352
C         0.84161924682143    1.21763754594402    4.92053839598582
C        -0.42604563099550    0.67500483487994    4.75789570695054
H        -0.76322504959787   -0.07243683278707    5.46288343927021
C        -1.26028937572143    1.05619644009151    3.72064533142718
C        -0.80698342392916    2.02306904270060    2.83650457784020
H        -1.44403775042735    2.33197512158822    2.02072812133374
C         0.44255587281177    2.60826113255702    2.96779763246136
C         1.69554188728469    0.70705468184267    6.04438306219668
H         1.59932042858448    1.33377216750595    6.93084113233687
H         2.74314603751447    0.66335814801534    5.75632736297099
H         1.37550865355460   -0.29525272761217    6.32045047823263
C        -2.60767158884949    0.42880868239098    3.53699968656642
H        -3.35492875851277    1.18400657871695    3.30215509853411
H        -2.91654929847578   -0.10644928121812    4.43160690810286
H        -2.57585955612347   -0.27715603902726    2.70696530459983
C         0.86230521378269    3.65433140634541    1.98380504651216
H         1.39736029356413    4.47291284648368    2.46227789833808
H        -0.00367080998404    4.05356584025958    1.46194156305851
H         1.52876147546563    3.20695871208498    1.22125151561552
C         5.82374738828933    3.79891251497164    3.29204669599832
C         6.25504641865312    5.12536827255817    3.39716890445177
C         7.45531513955677    5.48370320761047    2.80476678693238
H         7.78502963438442    6.51034540885553    2.87136304784017
C         8.22839761119654    4.56734675082538    2.10889902367195
C         7.78608143148872    3.25713050354572    2.03198954634947
H         8.37567327989756    2.52856376294541    1.49492098840015
C         6.59524944451567    2.84996701421186    2.61528111465524
C         5.46066152876741    6.18230891720044    4.11024596792325
H         5.73986917827711    6.23058735629373    5.16340581426776
H         4.39152567954498    5.99397693876507    4.04749613871624
H         5.67163174912862    7.15553569141457    3.67339786587644
C         9.49109574440773    4.99906940341411    1.43197452121421
H        10.02552559656918    5.73093032199476    2.03400375898424
H         9.24539981193644    5.46346547556170    0.47711339747342
H        10.14278357864625    4.15017998404259    1.24127381634048
C         6.16732039599640    1.42188710246790    2.48584561544140
H         5.48427118338565    1.31855814858575    1.62285586848131
H         5.65344296046555    1.06081576252196    3.37559425602417
H         7.02629388678772    0.78474216367885    2.29027966032159
C         1.17834997407741   -2.12246514132501    3.53753158081890
H         1.25309765506898   -3.09185329194622    3.04270179452811
H         0.15471506968101   -1.95100581605522    3.86833934663296
H         1.86685143582552   -2.08334688420683    4.38361503204563
C         2.62155389966856   -0.39654304470833    2.81651420037512
C         2.83476714153934    0.51369850298346    1.70299968153532
C         2.87832205025845    0.64554181886559    0.44674348327659
C         2.69758731216539    0.18104728864421   -0.91793828871337
C         1.29810755232889    0.35970627332368   -2.79027489866608
H         1.58845845692676   -0.66992208193573   -3.01009417915792
H         1.85912043432142    1.04409076630954   -3.43037694806929
H         0.22941211593786    0.49822824350393   -2.93404155503743
C         3.48305967370285    7.30960306047215    1.45892012528201
H         4.52284155532458    7.63869267723049    1.41537344197129
H         3.02779869487867    7.59003998119425    2.40718666465632
H         2.92659997795918    7.76009292800980    0.63423844153360
C         4.44435667606256    5.28195782568722    0.74762524871143
C         4.16662155718507    3.87446225877363    0.51879367476152
C         4.11931111381779    2.97124350945639   -0.36445963434623
C         4.33798880774522    2.45089009966930   -1.70485601787323
C         5.79476739401984    1.12843022063461   -2.98074123366621
H         5.24293881015905    0.18907699815333   -3.05965796470370
H         6.86492417154372    0.93743938315400   -2.96125973579769
H         5.53273942263253    1.78010797059195   -3.81705906687937
N         4.58558075561153    3.42667471461859    3.88128235827897
N         2.55932825600071    2.77450185987139    4.17964895564456
Ni        3.49852785705997    2.26455893068010    1.32749931887854
O         1.50708103959344   -1.10964521654077    2.59791553410615
O         3.35087696018857   -0.53111971699833    3.76761583762141
O         3.45027961542835   -0.56885693365359   -1.49177983759923
O         1.56456983941880    0.67041100089277   -1.43077777068393
O         3.41496751527355    5.89571652697053    1.35463334934663
O         5.45212749645975    5.83490085085471    0.38698966495547
O         5.47629093352441    1.75349614742511   -1.74668966998616
O         3.60990669610605    2.64759142174844   -2.64775943213082

