73
CSD_code = JENWAD | q = 0 | S = 0 | Stoichiometry = C34H33Cl2NP2Pt | MND = 4
Pt        5.78354497762970    6.58234195470677   10.05686428559876
Cl        4.91563154464139    5.17606326015473    8.42761347127404
Cl        6.71387865500681    4.82851236477069   11.25119862168496
P         5.20920574662038    8.26080282878338    8.62256223604425
P         6.41864007993577    7.62185312214909   11.99193623564874
C         8.23111377125695   10.10446604204646   10.30224266293579
C         8.15569062032533   11.49848023218407   10.25806459055447
H         7.50716470531327   11.96643526424829    9.53372808595322
C         8.89963885634068   12.28396120430635   11.11373519843029
H         8.81996637854989   13.35959073663510   11.05957959678398
C         9.74650299235448   11.68975681446401   12.03065427882753
H        10.33742689542358   12.29177864951165   12.70405867096981
C         9.82846718257905   10.30922758694211   12.08124752664647
H        10.48276031304127    9.85896111899384   12.81209528207572
C         9.08817265503324    9.49335258691845   11.23722264513334
C         9.15181674216051    7.98945662317170   11.41131135735792
H         8.85548033650014    7.48541426969995   10.48356512520475
C         8.17454761496848    7.55048421009931   12.51736153974713
H         8.32688177955218    8.14885317262810   13.41907600356481
H         8.34560303931697    6.49547247395856   12.75643539241851
C        10.55766453882076    7.47976411234566   11.73688008605019
H        11.28076836592962    7.89959715844330   11.04160900106358
H        10.58108368499934    6.39600658382485   11.64949305078216
H        10.85628026995973    7.73937244712199   12.74943324406725
C         5.47547463062066    6.83882757509000   13.33531637381355
C         5.85799935951330    6.90859042059646   14.66874358139482
H         6.77115509490315    7.41243366086768   14.95033767305472
C         5.07020989491488    6.31916379859043   15.64203080815365
H         5.37630847906936    6.36202098644090   16.67720407269228
C         3.89583876903918    5.67364366809115   15.29345860547619
H         3.28821618172814    5.21066087468921   16.05682618299053
C         3.50313779320147    5.61630819082601   13.96559356926251
H         2.59001581399567    5.10910654818636   13.69166103508728
C         4.28900919435837    6.19903944135283   12.99053960708853
H         4.00386563280513    6.13363270009148   11.94128121089194
C         5.80116380382647    9.32340541427476   12.26038881256669
C         6.46014201221716   10.32693891765305   12.95583755422719
H         7.44490765353489   10.16268679749743   13.36310168878965
C         5.86270223319621   11.56601686439013   13.11264015048808
H         6.39026828672411   12.34645549937559   13.64030987359889
C         4.60149500060833   11.80839624656082   12.59648068542641
H         4.14328618478226   12.77823983160777   12.72060368774223
C         3.92664157927950   10.80257296620441   11.92176436250101
H         2.93961600251175   10.98041487023857   11.52022991170433
C         4.52649607660717    9.56970373016501   11.75497642931143
H         4.01036417503562    8.77795083961598   11.21996056300081
C         6.20822850613459    9.80084624501936    8.92171036301651
H         6.30229391282053   10.35350102359242    7.97466794897049
H         5.70644043389999   10.44017112387417    9.66050485365353
N         7.49564360002841    9.36647819676036    9.39763140256700
H         7.55446935478464    8.35851497369523    9.51317707101862
C         3.49971143758404    8.81425652179372    8.38122613085859
C         2.53630293683391    7.81268359071190    8.27720692242389
H         2.85061666133987    6.77838991469099    8.32988623392499
C         1.20606887217678    8.14535656729464    8.10350805005218
H         0.46270670791068    7.36693899532436    8.01892872654350
C         0.82824725234537    9.47752764949345    8.04042261836438
H        -0.21083174016990    9.73967404476996    7.90660905592379
C         1.78322568535539   10.47517112104472    8.14977790563468
H         1.48790807369392   11.51327654345729    8.09975883099123
C         3.11790238976852   10.15066153099034    8.32120238162794
H         3.85438836739981   10.93612170080810    8.40230806910607
C         5.79687459012985    7.86173936371914    6.94956371768718
C         5.15788769877502    8.33392370130941    5.81017338919000
H         4.25498113402134    8.92225453082662    5.90041342928538
C         5.67082973020999    8.03230401249439    4.56054283410346
H         5.16667885456479    8.38933674505782    3.67436017281500
C         6.82062610516314    7.26960417570054    4.44472540252884
H         7.21272932086740    7.03090825545826    3.46719324893762
C         7.46200261246643    6.80151700740532    5.58088624082350
H         8.35273079093884    6.19797392312850    5.49015009723417
C         6.95164579297521    7.09491469406720    6.83034451913972
H         7.42624531945428    6.69703918688566    7.72196575547241

