98
CSD_code = JENWAB | q = 0 | S = 0 | Stoichiometry = C50H41ClNO2P2Rh | MND = 6
Rh        7.74761195442477    3.37902380214692   15.74739212184268
Cl        8.26564464036006    5.58219910769453   16.21838346568865
P         8.98331621789771    3.50797231518235   13.83088782220036
C         8.66195948129396    4.90432548346992   12.70424454503620
C         7.59006242336431    5.76353922934574   12.90508195193684
H         6.92940694390964    5.60684805499157   13.74393674452569
C         7.36960651040607    6.80943051968808   12.02518882489831
H         6.53728375649889    7.47870397220824   12.18593935814181
C         8.21319901419002    6.99976793665617   10.94465674635033
H         8.04189045778803    7.81820290402936   10.26055242722105
C         9.28044229557600    6.13886255804121   10.73794411952755
H         9.93793513638927    6.28445937601162    9.89294460762024
C         9.50769121395523    5.09466365119624   11.61325601958630
H        10.34113173796987    4.42358409101055   11.45445081750845
C        10.79867344873758    3.63279981329063   13.95765257157833
C        11.27870976136220    4.67680647929312   14.74551180864861
H        10.57167561450183    5.32726855353282   15.24289083258281
C        12.63905245878465    4.87966258757737   14.87811220968712
H        13.00574529101075    5.69816795690759   15.48130899184804
C        13.53315185767394    4.04258043780869   14.22983836888447
H        14.59700773346662    4.19528593708862   14.33811571512618
C        13.05925528723779    3.01605501765381   13.43144458702792
H        13.75296881383311    2.37165575225728   12.91068269817857
C        11.69736704349052    2.81274031464288   13.28684170104881
H        11.34269257180516    2.02233301291604   12.64103393202231
C         8.65686298364072    2.06596247486112   12.77327504431615
C         7.71442038760918    2.14517677263063   11.75347377568449
H         7.27247011733534    3.10051538104529   11.50727251382639
C         7.33408927040389    1.00591354993458   11.06758647988632
H         6.59672262024023    1.07453229392064   10.28175847216215
C         7.88468843871832   -0.22058105878677   11.39736872286823
H         7.58101152922793   -1.11024393072264   10.86595435998862
C         8.81680867008493   -0.30824655975580   12.41907955321350
H         9.24159105559620   -1.26627721369617   12.68337221343809
C         9.19518949714110    0.82557200266614   13.11296853450997
H         9.90029790150837    0.75437005785969   13.93134581240554
P         6.41271746084524    3.40882833952913   17.60394629417566
C         5.31233863313708    4.84829895831980   17.80493288732989
C         4.92832478406036    5.58895420596677   16.69219928553115
H         5.29249337734150    5.30932629638009   15.71418326674711
C         4.07848855671632    6.67044194997606   16.83978509823892
H         3.78698185935192    7.24618737341463   15.97357898874705
C         3.60551621562722    7.01728395157621   18.09408289827988
H         2.94600865899247    7.86512237544869   18.20950771581569
C         3.97911053246778    6.27586553863375   19.20332437395664
H         3.60903043975954    6.54267793945577   20.18277078493575
C         4.82968426153124    5.19481780166600   19.06380649050500
H         5.12212724926006    4.62268572889771   19.93312804285037
C         5.24829303530571    2.01144344171129   17.56747091276089
C         3.96718569525682    2.17876701875575   17.05306455209262
H         3.61751350329579    3.16984745622224   16.80004317607563
C         3.14841664042265    1.08176437344564   16.85396865952554
H         2.15764444799245    1.21949035845810   16.44723486987955
C         3.60156861145111   -0.18947984135675   17.16091848899424
H         2.96425281587665   -1.04557223702472   16.99685789786736
C         4.87897681816879   -0.36396715094291   17.66901226164998
H         5.23670566128168   -1.35630159937991   17.90423849024734
C         5.70413877195725    0.72732696727449   17.86303032862247
H         6.71209971590069    0.58930781881711   18.23280764947530
C         7.20423357939006    3.35083166724025   19.24479436993769
C         8.19984155415504    4.29818540033057   19.47404325645635
H         8.44625065104942    4.99895864375948   18.68826416987721
C         8.84438254784997    4.34823213289356   20.69502811075316
H         9.61063930332655    5.08940805094334   20.87154237727884
C         8.50318220175671    3.45531172997700   21.69814123420841
H         9.01183496498802    3.48790842273474   22.65043323747721
C         7.49683158457055    2.52959836095702   21.48261436797340
H         7.21295967679713    1.84596219184326   22.26983218705785
C         6.84184846035050    2.47830653339789   20.26394595911800
H         6.03996547588896    1.76880742907925   20.11860742061386
O         5.93408342205283    3.61571512568073   14.47281999370461
C         5.51480739205775    2.43952493944540   14.15601484091308
C         4.37106800917266    2.26551979808068   13.34783333537082
H         3.85679591963940    3.15035227328093   13.00288509835287
C         3.93120705444916    1.01093295321056   13.01116620039246
H         3.05329950399953    0.90170369502465   12.38979225347651
C         4.59911252243011   -0.12855102481759   13.45701779146391
H         4.24034946890118   -1.10869761834508   13.18163211502559
C         5.71651374685572   -0.00173397338663   14.24856780951352
H         6.23335968172003   -0.88616273614398   14.59188073814294
C         6.18614966056544    1.26127350827442   14.60699401111024
N         7.29443569859439    1.49676184101402   15.39217303279212
C         8.07764425524486    0.61891563107957   15.93780441151748
H         7.92098271423051   -0.44795785795481   15.82002963518872
C         9.17613500632347    1.13239233705435   16.69733598104462
C         9.27476762492943    2.54378058861105   16.75583874381809
C        10.12759134120309    0.33875872691935   17.34484202391030
H        10.04400046781118   -0.73825950096557   17.30185386655823
C        11.16435495142093    0.92561982849966   18.02925888827671
H        11.90951990301987    0.33368242715511   18.53679675267542
C        11.27791364102251    2.31932364040661   18.07472838352934
O        12.34476984789347    2.79929483115064   18.76523911976471
C        12.53606689363759    4.19320187094650   18.82381458755356
H        12.67251124062795    4.61748697468916   17.82464526492071
H        13.44248135549054    4.34074143980915   19.40938601495500
H        11.69703680044856    4.69139412355590   19.31825716207075
C        10.32972795171622    3.11810724778784   17.43677307525855
H        10.41289204095387    4.19221864693399   17.46973029258812

