52
CSD_code = JENXUW | q = 0 | S = 0 | Stoichiometry = C24H24MoN2Si | MND = 10
Mo        5.45436007168020    2.76568351273270   -1.58345920979178
Si        4.67126752534828    3.24954131738434    6.03565871321678
N         3.63025403199416    1.96294760579788   -1.76870156923540
N         4.23736803918149    4.33427361015274   -1.83726486326598
C         7.04928760266744    3.95415147851983   -2.70205199590926
C         7.70503313651297    3.47281915983945   -1.55093781623317
C         7.62146286258384    2.16978962769167   -1.01342105983192
C         7.02975187953492    1.00988958318443   -1.55145187074742
C         6.21739664644007    0.93610998444742   -2.70460120359857
C         6.01209919651754    1.89600493209963   -3.73377991537280
C         6.37496157188213    3.23401239732037   -3.72907047367990
C         3.30503143856571    0.69332272078978   -1.45763438368609
C         2.12277455522446    0.10354044270333   -1.81389257524767
C         1.17497325926634    0.84452000604828   -2.53743342776917
C         1.44708581671026    2.16391118875260   -2.79654683039794
C         2.66476984513443    2.72015923809582   -2.38029805642126
C         3.01796098690963    4.10108635033601   -2.41946612707376
C         2.20819995854648    5.14986320657114   -2.87753105034624
C         2.60427111561748    6.44998896766819   -2.69152608694520
C         3.80221209576206    6.68327982207205   -1.99763410917469
C         4.56352170081138    5.61906406915447   -1.59718926261656
C         5.10324344348457    2.91596293582121    0.42397513276531
C         5.00626748555333    2.98706136916835    1.63961928296797
C         4.89405883141341    3.06791007498630    2.98737286018249
C         4.80699988242892    3.13748578295407    4.20050098070310
C         4.65485766335751    1.48958972753859    6.77529456670160
H         3.81779902627634    0.91291473592873    6.39316805999621
H         4.57305417014531    1.51148448351704    7.85862139067753
H         5.56396451171157    0.95121985287458    6.52441310353006
C         6.16703685941517    4.21800403811653    6.72137479946274
H         7.10143313107932    3.72732525726251    6.46573782072853
H         6.12567661605382    4.30452947980166    7.80375050165000
H         6.20325064238437    5.22305337179665    6.31170870511158
C         3.05535170768726    4.15512555402672    6.49666522702534
H         3.03849167482262    5.15931696553750    6.08364522228702
H         2.93644719350960    4.23928609448676    7.57346943377947
H         2.18822386581516    3.62852584989046    6.10936055898321
H         7.19081246870538    5.01335686122696   -2.91082750201262
H         8.25244504827459    4.20270456717275   -0.96165934796990
H         8.12618472333061    2.03163576914935   -0.05951966637661
H         7.12796086389672    0.09998143561950   -0.96667904421922
H         5.79386484484312   -0.04565590736585   -2.91155782720966
H         5.42700079224390    1.55555714587435   -4.58388087386108
H         6.04557293451842    3.82790273287630   -4.57766701960069
H         4.05615767893659    0.15007673590051   -0.89711305875211
H         1.92836917001422   -0.92265711179623   -1.54667665099749
H         0.25075096774410    0.39127279382920   -2.85794207819504
H         0.73176197050200    2.78326078151146   -3.31390290558255
H         1.27524097320729    4.92223604066052   -3.36815786549452
H         2.00423102600313    7.27296512355967   -3.04510033478603
H         4.12649396968190    7.68966687712340   -1.78717083490330
H         5.49075252604828    5.76524135954656   -1.05648946249611

