72
CSD_code = JENYAD | q = 0 | S = 0 | Stoichiometry = C37H32MoP2 | MND = 10
Mo        7.76719478949810   14.81649031333651    2.78201655300884
P         9.72868774414859   15.83060849986715    3.55197555266213
P         8.66602764592191   13.11514063637553    4.12004869476305
C         6.08303464985212   16.15124024459690    1.82376024532638
H         5.57881358948632   17.05418768021135    2.15918125724472
C         7.22990569833064   16.34152127195343    1.06791481838205
H         7.51013177429468   17.37432774659251    0.87687046741689
C         8.14325133939642   15.35557436145463    0.59846235255549
H         9.01342149855792   15.74349788075683    0.07248261717846
C         7.99011320029061   13.95920932896009    0.57723362374474
H         8.76006138138331   13.39418133524537    0.05857240006813
C         7.02515850867765   13.20300630368352    1.24643914239032
H         7.14527424329690   12.12369527593144    1.17060292573848
C         5.90203269242528   13.62650980241008    1.99867073956282
H         5.30041119818247   12.83064746699398    2.43152903071225
C         5.50841984485762   14.93247299159851    2.28647214296706
H         4.62625925366843   15.04517787439773    2.91128199149888
C         7.38628100548333   15.83351014082628    4.53534938895098
C         7.02528325146826   16.50987864621475    5.48411616445657
C         6.63573081470369   17.23600981327252    6.56388514576304
C         6.29515295527885   17.88220517557830    7.52477729942939
H         5.99176889460445   18.44322313174231    8.35659636310411
C         9.73159349685269   17.61307555127340    3.84176270864097
C         9.63459500510860   18.20501203963575    5.09442179990789
H         9.60915946244154   17.59447213302353    5.98417697875499
C         9.55532953991852   19.58294720070890    5.19889097454586
H         9.47404792815395   20.04067073826543    6.17393575839932
C         9.57106847441496   20.37431923317483    4.06286931172728
H         9.50309572765758   21.44881738754389    4.15113912703690
C         9.67231921579069   19.78808538552815    2.81059381650666
H         9.68723909723308   20.40517171744434    1.92335078948381
C         9.75043205737014   18.41370626866198    2.70249984672462
H         9.83677284505960   17.93801460403430    1.73236979353683
C        11.29307613738007   15.65406862932767    2.62601439046858
C        12.39637088013215   16.46871956400017    2.86420061975608
H        12.32456780707983   17.26856335387880    3.58937354376653
C        13.57324475772082   16.25817360108771    2.16962753931393
H        14.42697771881053   16.89492278904777    2.35232715329302
C        13.66265900788333   15.23254976331867    1.24088823870344
H        14.58437917324105   15.07314790727959    0.70045711773270
C        12.57086105725601   14.41337914594107    1.00638607923617
H        12.64006945661839   13.61118680013262    0.28494192334611
C        11.39124333072488   14.62762174582460    1.69676069248336
H        10.52333578064305   14.00109076138818    1.53044607233297
C        10.27640310297325   15.06579068201478    5.13652843429671
H        11.25872717628246   15.44682902305786    5.43869331791668
H         9.52305563261208   15.30439149003796    5.89491206893984
C        10.29816362437864   13.56630440989802    4.88107673185399
H        10.46195805616585   12.99796164295513    5.80245978820738
H        11.09599356577142   13.33136175159627    4.16943286903802
C         8.99199080036168   11.50899419638969    3.33027229853483
C         7.93098011541213   10.60485164934435    3.27001050651849
H         7.01235851304766   10.83800314953324    3.79402450431063
C         8.04774949861707    9.42545579929274    2.56058532512320
H         7.22024724893256    8.73107355982144    2.52800580206935
C         9.22373207915365    9.13568321348876    1.88646772508179
H         9.31705392501500    8.21473197238555    1.32991682687073
C        10.27584092553328   10.03491267789761    1.92438621545445
H        11.19217076347498    9.81542365244157    1.39486108021354
C        10.16075043852877   11.21725346410157    2.63434451264931
H        10.99073649281283   11.90919033506683    2.64417398489487
C         7.74663278386393   12.54607303815209    5.58292874606323
C         6.51163576641683   13.10240320293184    5.88439311121065
H         6.12251536817145   13.88641996935479    5.24904946304609
C         5.80587880061295   12.66643804001133    6.99291011356957
H         4.84916362852181   13.10879980888059    7.22881228504239
C         6.32472732620704   11.66603562316534    7.79686779262863
H         5.77436538477493   11.32528704261747    8.66177213426590
C         7.54986596401283   11.09371783522161    7.48877028419869
H         7.94940702891846   10.30467073711826    8.10983769250076
C         8.25904039440644   11.52865241799149    6.38605921075643
H         9.20590166372019   11.06845737271669    6.13257398212574

