114
CSD_code = JENYIN | q = 1 | S = 0 | Stoichiometry = C46H62N3O2W(1+) | MND = 5
W        -4.24370632943079    4.01432578104285   13.05378885610210
O        -6.08398163469676    3.87175041138322   13.27378579675563
N        -2.86239756608901    6.85349588169592   13.12394085255634
C        -4.00142316968049    6.16059863523018   13.17666832034373
O        -4.87628068563251    1.72069255367412   13.73087907904886
N        -4.99468020197855    7.02437091698226   13.45563388558253
C        -3.03541151846724    8.28345590900625   13.38245329866898
H        -2.73682846317317    8.85972737437872   12.50242872361031
H        -2.40415408207439    8.59136284740668   14.21915213702713
N        -2.62585101444026    3.59939766295691   13.68576753257293
C        -4.52697169630278    8.39240984802674   13.68380310465414
H        -4.72999025609393    8.68539880279207   14.71875327850418
H        -5.04693874271716    9.09280994304190   13.02738528323345
C        -1.54646372531930    6.43395953707078   12.76923956264529
C        -0.61853840189384    6.17315662315805   13.77749580696685
C         0.71232673221751    5.99016408282678   13.43122305210131
H         1.43074136647505    5.79681161214719   14.21386408660170
C         1.13864363548591    6.08120919415951   12.11492032668063
C         0.18947589107156    6.30426727794008   11.12501711958966
H         0.50579323065666    6.36212916555178   10.09397120338924
C        -1.14876568219426    6.49052114487760   11.43045237328761
C        -1.03328635786476    6.13410788762727   15.21520700843659
H        -0.85464447216255    7.09912333564923   15.69149059762121
H        -0.45626000169721    5.38461344968662   15.75052959098399
H        -2.09027262490368    5.88685710233110   15.29474833337770
C         2.58957567938917    5.98977476433990   11.76169732457094
H         2.73549156231969    5.40725505886120   10.85558269706346
H         3.16491812046351    5.54472749851135   12.56861655045795
H         2.98321695807336    6.98963748372232   11.57896171429271
C        -2.14096962671263    6.79467880816553   10.34974473184984
H        -3.09122159198065    6.31039314514825   10.57107122911098
H        -1.77309198123392    6.44208524941409    9.39015212155294
H        -2.30209748497240    7.87026324425485   10.26756670291928
C        -6.35938435788362    6.72549225652831   13.73157001868943
C        -7.35725012721428    7.11887543828657   12.83907280093157
C        -8.68008614264734    6.83295948271764   13.15380868049700
H        -9.45288353759614    7.12302661471719   12.45710061938259
C        -9.03154483132956    6.20292005514508   14.33656535756524
C        -8.02326149891731    5.87105213994111   15.23407722010923
H        -8.28628552420496    5.41135362553069   16.17626583246922
C        -6.69230651357644    6.12746411907836   14.95293562017740
C        -7.05578111708434    7.87769461080102   11.58156612055018
H        -7.28937211928808    8.93258477058265   11.73095901530454
H        -7.67721109981595    7.52059187760583   10.76405102056182
H        -6.01351224951404    7.78923543593040   11.29128727718488
C       -10.46336825478375    5.92481982296972   14.66710052310231
H       -10.56274085465859    4.99193518929898   15.21731936055230
H       -11.07001085896317    5.87348891423011   13.76692503082064
H       -10.85805519863413    6.72447322138188   15.29408878297173
C        -5.62047499513792    5.79543163677340   15.94866559213559
H        -4.84016546642548    5.17625008630292   15.48703251731359
H        -6.03986500775146    5.26064189624963   16.79709400491645
H        -5.14890938890568    6.70459154886885   16.32352096029126
C        -6.90257693914494    2.95345158413558   13.87486119176245
H        -7.91184758622239    2.96951394413384   13.43088655085310
H        -7.00205159085924    3.18535091349412   14.95118431164289
C        -6.28718447169471    1.54550111132543   13.70785366738461
H        -6.59603457963477    0.88624612258395   14.53024600997101
H        -6.58937386445434    1.09918526819259   12.75099540223781
C        -4.17743653810823    0.49818448266204   13.56162077162383
H        -4.51563080437879   -0.23562694732029   14.30145818883210
H        -3.12050595498262    0.71442644495326   13.71498826797879
H        -4.33910606714316    0.09273889694056   12.55757625953731
C        -1.66125584881818    2.97993826453033   14.39430961335271
C        -1.84099513250719    2.68198508051029   15.77255185359613
C        -0.79861577348577    2.12247809480230   16.49042791084652
H        -0.92699844532355    1.91412429954459   17.54193199325721
C         0.40360673215459    1.81204359305347   15.88306959438425
H         1.20735026468429    1.38246167325457   16.46077306329137
C         0.55970598854302    2.02234848746209   14.52294863234209
H         1.48506223579827    1.72981657775318   14.05439307081219
C        -0.44510327148802    2.59442251570070   13.76698867215363
C        -3.17149623212284    2.92056476930320   16.44723525426575
H        -3.87806504119976    3.26966525800100   15.66617003322652
C        -3.07184037090729    3.97033847515100   17.55619986528486
H        -2.35819121939428    3.64905651673930   18.31067164093052
H        -4.03645823281277    4.10393805050816   18.04170627988018
H        -2.74079583617938    4.92950657709932   17.16857709456887
C        -3.72678927400471    1.61876448653334   17.03430462333701
H        -3.70485957758625    0.82019639841208   16.29846284217779
H        -4.75359271936019    1.76233034594279   17.36656294547467
H        -3.13788310840939    1.30360503555892   17.89168782411440
C        -0.33192570514053    2.75844133061160   12.27108888379291
H        -0.78456498169954    3.72435598656313   12.01521692804614
C         1.10103206902095    2.71951004954591   11.74919046581986
H         1.74016402225703    3.38434042350288   12.32054990864060
H         1.11767416812874    3.03565372757933   10.70889982660886
H         1.50495837666854    1.71104486078712   11.79803852979510
C        -1.15428094734448    1.65377865622335   11.59356474881051
H        -1.05164939342793    1.72169821942342   10.51273901779953
H        -2.20570704553320    1.76334664369476   11.86047821649443
H        -0.80184540390257    0.67375860300197   11.90999007012512
C        -3.81125008572621    3.91957611999432   11.10465847460410
H        -2.82460547770674    3.75940386580347   10.65881899008919
C        -4.89337244449505    3.88756817527915   10.05469263077221
C        -4.32691094961530    3.91078062350181    8.62339221075693
H        -3.64104968304173    3.08467286207505    8.45684141781236
H        -3.79439509777024    4.84239930428745    8.44501548409510
H        -5.13414496693058    3.83095800154809    7.89787787429079
C        -5.81791556027966    5.10198791583232   10.21856981270817
H        -6.61769137137718    5.07982776494250    9.48107994514634
H        -5.24275861723705    6.01041642094949   10.04907671666832
H        -6.24640843527619    5.12983306544506   11.22166536185101
C        -5.64416787479717    2.56910758730022   10.23921948656705
C        -4.92056030582168    1.37762468956626   10.17642094578704
H        -3.84732997907591    1.40752026349838   10.05963095768213
C        -5.55699898544658    0.15019817647397   10.23245529108783
H        -4.97750782525210   -0.75888693200714   10.15818342936143
C        -6.93498880518398    0.08445100068315   10.36309250164574
H        -7.43593213560868   -0.87104886209059   10.39471243920359
C        -7.66224699761818    1.25910789232441   10.44719772650941
H        -8.73709185305429    1.22124899136039   10.54910212201410
C        -7.02500621886854    2.48926075681963   10.38515757940090
H        -7.62894494813922    3.38079252150554   10.43873993661773

