99
CSD_code = JEPCEP | q = 0 | S = 0 | Stoichiometry = C39H50AgN5O3Se | MND = 3
Ag        8.34717061807279   15.03868169888227   11.92063446974018
Se        9.47320679698405   16.68170582844303   13.55083624666589
O         7.06773297555244   13.99722512902930   13.45066777357701
N         9.53739414762778   14.34954169046495    9.09654109897884
N         7.41389729458606   14.31458451876560    8.87228063546180
N         7.96066031989734   15.07116413539621   15.24557287545009
O         8.84486563230091    8.01765029277722   16.28982756578807
N         7.75822538678800   17.28615330352469   15.68347369468264
C        10.82530583930555   14.51734190203271    9.67722611247388
C         8.38821804501150   14.50645888760180    9.78289944446405
C         8.05897342661531   12.70776484457205   15.18030803865573
C        12.72006377879217   15.90154281626773   10.12043307342325
H        13.23447014378883   16.84603823470574   10.04120794716917
N         9.16050400540487    9.03461736778083   16.87978601207320
C        13.30717400199283   14.86433428657602   10.81827649818348
H        14.27654836555863   15.00304475767064   11.27292904727874
C        11.47009532771217   15.74906188184575    9.53662331912343
C        12.65254258082205   13.65537603768955   10.95031267641602
H        13.11706716860830   12.85917007754730   11.51054966032366
C        11.40048920286859   13.45749131719388   10.38314798214864
C         8.23029046087020   16.29618987376396   14.92219873264261
C         8.79988138637274   12.67957876321165   16.36182623682263
H         9.09126530876445   13.61229923687139   16.81942863660482
C         7.68630658617344   13.99333218209878   14.53719130632470
C         8.77881597020644   10.28891005955538   16.30312180585332
C         7.67685614518849   11.51150736246578   14.57193936666153
H         7.09739222744229   11.55772097465272   13.66275355723840
C         6.02418746897705   14.36707671731866    9.16827362127957
C         8.03411088651482   10.30300542701444   15.12627001120845
H         7.75152986193941    9.36534893460365   14.67224003565178
C         5.33426967402948   13.16839757695627    9.36997391951144
C         5.39264484856384   15.60911097032604    9.25899725374850
O         9.77978630357641    9.05244579040419   17.92684309200906
C         9.16058345465495   11.47559389207485   16.92523672932652
H         9.73816369002409   11.42782857360396   17.83585737646554
C        10.67899800957485   12.14245347044231   10.56673920219929
H         9.77622323495710   12.13858178198812    9.94725445118118
C         3.97970668751008   13.23619311934624    9.66261874605845
H         3.42261340890325   12.32968612489925    9.83597234213140
C         3.33521595062243   14.45550718756834    9.74953447131723
H         2.28137010620301   14.49027301713094    9.98249337701629
C         9.28999556214348   14.06571502504335    7.78042450771917
H        10.07617328426421   13.90851252991931    7.07109889463691
C         4.03563125218379   15.62946747537114    9.55501998899586
H         3.52170468188245   16.57376819883210    9.64221554556381
C        10.81913496602221   16.90637424804967    8.81705908287826
H         9.88674639459334   16.56669001083030    8.35550248504863
C         6.15614049736011   16.90081738106520    9.08375087371602
H         7.15543927674342   16.67747940826346    8.69718762647696
C         8.15416289497505   18.66792856758709   15.54218535863883
H         7.30123807549389   19.29474697677881   15.81625455793212
H         8.40057815671646   18.85719387740833   14.49302613060301
C         6.06288713699650   11.84520604229701    9.35836227448687
H         7.00352369662014   11.95928381881134    8.80992672418381
C        10.24510738564697   12.00627055992729   12.02840362831062
H        11.10812969063486   11.99438541827095   12.68922171902962
H         9.68022772986092   11.08907292175287   12.17681110889938
H         9.61008656871724   12.85808756101192   12.30721982572732
C         7.94330896868713   14.04030993229559    7.63826370127974
H         7.32921636186289   13.85856876330791    6.78032540172770
C        10.46781045840676   18.00005235056835    9.82728899011325
H         9.85330140019557   17.58649504434977   10.62845179299477
H         9.91744105315059   18.80187869093988    9.34038429407061
H        11.36574765658568   18.41632220219882   10.27525777312284
C         9.36496112786760   18.99898819039429   16.40844831700394
H        10.21414869089396   18.39899234532297   16.08929237502592
H         9.16189556191318   18.78889068572502   17.45654764602592
H         9.62121908797033   20.04949425237610   16.30263001783421
C         6.32161350751474   17.57927812621583   10.44592375136241
H         5.35279676904238   17.82437335055865   10.87414070703766
H         6.90326814659085   18.49254743432575   10.34590707518236
H         6.84704316642292   16.90353350588495   11.13926362923842
C         6.39898339289179   11.47135444542323   10.80535125972350
H         6.95321477922533   12.28125461607318   11.28094702310251
H         6.99824596357390   10.56367082142494   10.83277697365992
H         5.48509332836839   11.30597207898231   11.37115752701159
C         6.79054499375247   16.96282958954317   16.71410432112133
H         7.05892334653121   15.99306223421459   17.14303808321737
H         6.85275872755076   17.72561142299950   17.49336205673518
C        11.71518858103999   17.45088963638299    7.70278330918038
H        12.62882641085248   17.87725062497887    8.10706783987355
H        11.19129402327488   18.22984183096057    7.15335581586107
H        11.98470925408862   16.65906126667880    7.00652495456829
C        11.54335138763872   10.95490928892522   10.13882933606410
H        11.88688604575023   11.08229934578795    9.11432713261095
H        10.96407900106080   10.03628898747786   10.19716082162517
H        12.41236760870782   10.84704962495004   10.78152555814601
C         5.26783720984335   10.73173954075937    8.67591825685633
H         4.40140038978125   10.44411394213846    9.26488897818242
H         5.89671448550999    9.85225117439947    8.55694225722307
H         4.92910217635758   11.04898520810664    7.69175422449862
C         5.37513972061034   16.89455062193214   16.14589377805578
H         5.32285690108498   16.12838350426865   15.37589864553923
H         5.09212358631602   17.84873859997054   15.70587869699750
H         4.66720250398362   16.64757370370521   16.93256982247075
C         5.47169869322617   17.83893024720683    8.08750642808287
H         5.30143408083867   17.33217112539857    7.13992007247590
H         6.10174422772726   18.70664985176365    7.90629796753186
H         4.51588092419064   18.19005148238226    8.46602381787353

