45
CSD_code = JEPCOX | q = 0 | S = 0 | Stoichiometry = C21H21N2Rh | MND = 6
Rh        4.82663850283822    1.17443420502764    9.51488154099020
N         3.24793078036198    1.70199739962815   10.78829559176386
N         5.90311026490062    1.55227251769462   11.18472762010766
C         1.93838098590866    1.76022769615229   10.55137946220198
C         1.00784878285729    2.14993486023422   11.49280940300760
C         1.45164615319014    2.50486100163666   12.76400850411935
C         2.79909919936161    2.45335161979782   13.02564166072607
C         3.68996749884226    2.04805643765896   12.01964729717954
C         5.10275072400216    1.97170163924359   12.22462200320205
C         5.84592063019655    2.26111093977019   13.36095932906650
C         7.18327001525323    2.00943893194562   13.02235246184202
C         8.37712503343294    2.11771762152222   13.74414607482217
C         9.55384406070324    1.78822523213260   13.12539030721348
C         9.55715112887014    1.34659442123524   11.79475669249728
C         8.40124289433816    1.23097685672719   11.06117045498080
C         7.17904426330079    1.56622976396516   11.65865499568037
C         3.59475742598193    0.11619813139446    8.15623511125932
C         4.32108573429790   -1.06780730841017    7.55758459594106
C         5.83110074999995   -0.82168254527748    7.39448057713150
C         6.35092443988168    0.14628525955741    8.43542315914701
C         6.46079992517451    1.51459666932780    8.21357113973034
C         6.00877483914485    2.21300563274640    6.95195668020728
C         4.58667316342870    1.81024899806033    6.51844297770013
C         3.72562876060443    1.42757649925908    7.70389906227094
H         1.60135674458361    1.48435926654344    9.56172076215320
H        -0.03966116420858    2.17589764660572   11.23927073789496
H         0.75045159311600    2.81385082496874   13.52475221527227
H         3.18955700072010    2.71962844906620   13.99376855492579
H         5.47877097287203    2.60766351091168   14.30747809427248
H         8.35618547051743    2.45583000557486   14.77057353073749
H        10.49105394408577    1.86294738996402   13.65801811303247
H        10.50069999913257    1.08829557839827   11.33443957397496
H         8.45976078496159    0.88101784210712   10.04352513849063
H         2.66473126414633   -0.17501683676237    8.64664044584438
H         4.17003325589996   -1.92446390388082    8.21892217015408
H         3.87107503969455   -1.32133766355759    6.59120437074048
H         6.35704945185754   -1.77283024144278    7.49591356153859
H         6.05386919589423   -0.43523954844251    6.39957290915691
H         6.99830642950307   -0.31235578867459    9.18107474420145
H         7.21387889708296    2.07623005585599    8.76477833280810
H         6.03164141549518    3.28949111530721    7.13787195458154
H         6.72235991500231    2.00833093536118    6.14668428902350
H         4.12592869604271    2.65272842802755    5.99887896233022
H         4.62043622335787    0.97843760029877    5.81411373667194
H         2.90499891338820    2.12098285274259    7.88826109939837

