57
CSD_code = JEPDAK | q = 1 | S = 0 | Stoichiometry = C22H31ClNORu(1+) | MND = 10
Ru        0.33715974238107   10.05578615081010    3.48608650215721
Cl       -0.97892004310093    9.82550718986385    1.56110519577880
C        -1.40716127691698   11.13972379846133    4.24812704440434
C        -0.47804036945972   12.04931235217510    3.71085005601462
C         0.78267656221436   12.11434326375673    4.34531918036614
C         1.91281544534407   12.89322784051979    3.85708864193165
C         3.12981208811612   12.82164801699228    4.54575769223367
H         3.19602314012974   12.21613169545770    5.43787926788266
C         4.24141925729512   13.51136754628044    4.10527826616355
H         5.17030985172378   13.43953363396271    4.65008315555428
C         4.16222457603878   14.30423117843993    2.97115522860181
H         5.02763335567088   14.85142371043297    2.63051030773965
C         2.95992099753886   14.40428011254628    2.28824415028360
H         2.88565912931938   15.04050817939446    1.41869759651789
C         1.84871432546623   13.70592377443709    2.71857870895376
H         0.91993066530102   13.81594889716071    2.17948661012302
H        -1.43462298804172   11.00471217145625    5.32688206309324
H        -2.36997178449634   11.04058090753490    3.75769365501344
H        -0.71177197571821   12.60809682343063    2.80521734253083
H         0.81441470544478   11.90333238990534    5.41368187080910
O         1.84385815649896   10.71894283848772    2.01385271833702
C         1.66625937642215   11.29471036643452    0.93013529415073
H         0.65811699708767   11.50917710993861    0.55296735855473
N         2.64644851534637   11.67370143224342    0.13582561122038
C         2.40718554456721   12.33702392066708   -1.12186452308567
H         1.33961647159455   12.44342804675423   -1.29759737012979
H         2.84264333125016   11.75776778119060   -1.93769388874977
H         2.86981768054507   13.32543847077194   -1.11539534595571
C         4.03210547115753   11.45736830082111    0.48451965725849
H         4.55887059914010   12.41139599338214    0.52398672054596
H         4.51139729535092   10.81793693168625   -0.25777834257093
H         4.08137903736914   10.98256723793563    1.46118914540012
C         1.30682245258673    8.11236914527494    3.34309021114258
C        -0.02192172663600    7.83574241195755    3.79368796286338
C        -0.19460720963913    8.47733144038531    5.05984788931119
C         1.05896880755922    9.08323201613371    5.43352510147325
C         1.98708269675296    8.85858143719378    4.37982459268647
C         1.94436695309072    7.51464845200206    2.13329969310952
H         2.26461592641793    6.49485727015899    2.35419521959661
H         2.81214135420550    8.09335288534557    1.82402925776274
H         1.23444509219171    7.47459555673626    1.30820795440049
C        -0.98621021050303    6.91874354039539    3.12717652502438
H        -0.62457079123492    5.89358645657032    3.21998693406469
H        -1.07569264558911    7.14764436146487    2.06602767602850
H        -1.97247513006345    6.98436742466029    3.57743536586602
C        -1.36607468847362    8.27303203388411    5.96198595833318
H        -2.30571496816367    8.35757954977223    5.42003672802345
H        -1.37145331636785    8.97902720967804    6.78812751813792
H        -1.31147864244823    7.26646009610783    6.38065032831503
C         1.37043935771540    9.61551510872995    6.79401990139602
H         1.58007423523792    8.77580097385682    7.45962369953065
H         0.53263923553082   10.16692288764887    7.21681351287430
H         2.24354958450664   10.26282292885060    6.78309164489635
C         3.44850869256838    9.16158511983490    4.38674477935758
H         3.78599576154416    9.43874504886791    5.38166700326528
H         3.67618176588218    9.98155464171842    3.70405273685568
H         4.00844353274924    8.28582393943786    4.06138223455919

