108
CSD_code = JEPQUT | q = 0 | S = 0 | Stoichiometry = C47H52Cl2N6Ru | MND = 5
Cl       -1.51300350010921    8.99080043993918    7.03675759649067
Cl        1.67926763027628   10.00305107123454   10.44077448434053
Ru       -0.10118608191172    9.47224460945720    8.91852369457280
C         0.61786710034500    7.55398031843479    9.07615240231818
N         1.68285864185666    7.02564596758502    8.45444557224776
C         2.31970577516953    7.41760793392911    7.24481075293728
C         1.73857904354347    7.05236380644336    6.02581968960124
C         0.42179220546139    6.34516212384172    5.97725697011472
H         0.37705406851980    5.52921628359072    6.69610438681186
H         0.23770678982432    5.94720615917331    4.98279341262881
H        -0.38270222343514    7.04302012783663    6.21800661845059
C         2.40024108153187    7.38310715042937    4.85174368459559
H         1.95061978149577    7.11769701199874    3.90547994497449
C         3.62268523986261    8.03853831346468    4.86495885362219
C         4.32413447134964    8.37465754202496    3.58389166430047
H         4.93570781635486    9.26702082569591    3.69847089998962
H         3.60830401881887    8.53587874150561    2.78108157691533
H         4.97962044181128    7.55379400723825    3.29090052618419
C         4.19509443438541    8.35304109029947    6.08859829388442
H         5.15536986056913    8.84925548358291    6.11379899915217
C         3.56570245855266    8.04714814686462    7.28763568396848
C         4.21968100202288    8.39358998966053    8.58927880608151
H         3.49154855111846    8.74933509657574    9.31678972128095
H         4.96916001503818    9.16790422791278    8.44473439807013
H         4.71891207879669    7.52008203650791    9.01078635980786
C         2.10665925378281    5.74410547826021    9.01764094039309
H         3.10697513081305    5.84150765877968    9.45120550847461
H         2.14617979562211    4.97953857186393    8.23572805096815
C         1.04070038145618    5.47556573936215   10.07169024192268
H         0.41102895683652    4.61002508042994    9.83422484569512
H         1.46121138880660    5.32654555527449   11.06839368900799
N         0.24308055191840    6.69852736003455   10.03132655314137
C        -0.86631251510943    6.77063378565914   10.91399145519990
C        -2.13366535548653    6.41038665481382   10.44535884507628
C        -2.34041650284962    6.03542098818250    9.01059754491011
H        -2.04058861857714    6.85262633895802    8.35458131514378
H        -3.38546955378219    5.80591092808474    8.82117321301530
H        -1.74396762335631    5.16210131001943    8.74806737314539
C        -3.19242015137416    6.40238910222415   11.34150892451824
H        -4.17821310558572    6.13793558915783   10.98500574906501
C        -3.01315141713632    6.71433514110373   12.68034205479492
C        -4.16041500058857    6.69473640016479   13.64381148003424
H        -5.10293510530996    6.53774618253529   13.12582858685539
H        -4.20960544778191    7.63753176571648   14.18590798035716
H        -4.02840516875142    5.89545735611718   14.37277690758896
C        -1.73822939649045    7.03265667263657   13.12544118334324
H        -1.58748864290318    7.26978133255346   14.16890504027439
C        -0.65362748195635    7.06383092280839   12.26346008659887
C         0.71020403704587    7.40686033365948   12.77825691547566
H         0.63052931786176    7.98671305036098   13.69374100357411
H         1.26396320710286    7.98783702107549   12.04396541802105
H         1.27684562664257    6.50220105525196   13.00467268539007
C        -0.49358390093063   11.59091458319265    8.52707661043835
C        -0.13915799855050   12.14984307989137    7.35029068502903
N         0.74419433351507   11.59588344665306    6.43674685775015
C         1.39960442156130   10.33716714713466    6.59696031081872
H         0.95319438010231    9.57287365771335    5.95224443908113
H         1.32361901448561   10.01849866345915    7.66196538756490
H         2.45906552839201   10.43436438916965    6.34632891764130
C         0.97158088229911   12.47504449652860    5.41070314133966
C         1.75529886094580   12.36715182914172    4.27979954709183
H         2.32231452948796   11.47299780977301    4.07329424549366
C         1.78073330917781   13.45429053328858    3.41272584624399
H         2.38292032817459   13.40096876723574    2.51823746968337
C         1.04601808087180   14.59766583292704    3.67264151850702
H         1.08248901195480   15.42354990136638    2.97825697909948
C         0.25228610568322   14.70853871282155    4.81098190249585
H        -0.31982589375971   15.60573650986231    4.99229818132519
C         0.22404422231940   13.63682829025871    5.67906869012546
N        -0.45215731366666   13.42911961418001    6.86371954780386
C        -1.15732413243966   14.44672936662193    7.58286224179507
H        -0.91982810916318   15.41416104737029    7.14294594822069
H        -0.84725689928008   14.45954392608505    8.63024430649721
H        -2.24135647259365   14.30356557260072    7.54086579343592
C        -1.45688545342362   12.14145450872520    9.39814829387029
N        -2.80625145524873   12.17665673012148    9.19119718941616
C        -3.49051142790115   11.62917803243119    8.05298288647467
H        -3.80323158917200   12.41655692745936    7.36343338253962
H        -4.37094062894303   11.08133095809983    8.38733965901938
H        -2.82362236205296   10.94066739463161    7.53027228716845
C        -3.41790386487435   12.69100042221680   10.30959733990752
C        -4.74908929650541   12.92225420677649   10.60867137758863
H        -5.53426340170578   12.67776210510700    9.91113333424200
C        -5.03396288478282   13.48149575057653   11.84302555188115
H        -6.06194677098504   13.67298700374343   12.11030085641407
C        -4.02603719784457   13.80685796620519   12.74325236997426
H        -4.28963163316350   14.24693209902063   13.69269229964816
C        -2.69181516994734   13.57987988620274   12.45075186112747
H        -1.91585296170515   13.83538097603391   13.15393042186362
C        -2.39848031369336   13.01347892652312   11.22278722816144
N        -1.20872880929798   12.66638083763323   10.62994251309772
C         0.09818562742433   12.92193248215929   11.16883989356619
H         0.80261380764031   12.19590894243065   10.76157291904017
H         0.07051557040684   12.81883372873398   12.25079963819112
H         0.43025317835304   13.93215669993860   10.91081169243694
C        -1.64686545312144    9.31367696830128   10.03595985706446
H        -2.53630901681127    8.96363005467121    9.48894708451286
C        -2.01269587576198    9.73865729755468   11.34943685531219
C        -3.37693177377906    9.77155660066012   11.69648224216742
H        -4.10968481355829    9.44752968935155   10.97023736947908
C        -3.79251354916314   10.21234069374943   12.93333663589402
H        -4.84718644661920   10.24086626154099   13.16856337419226
C        -2.86148718501140   10.61915581578017   13.87671543925794
H        -3.18757077339229   10.96066306815152   14.84860123171586
C        -1.51103429384712   10.57916092102011   13.56395831475946
H        -0.78166292259345   10.88559907885664   14.30139396177877
C        -1.08935316131157   10.15235723953318   12.32299312569779
H        -0.03897724832051   10.12362666851433   12.08623435979629

