111
CSD_code = JEPRAY | q = 0 | S = 0 | Stoichiometry = C49H54CuN2P3Si2 | MND = 3
C        24.43622358243924    5.64382936969229   14.59158505558437
H        24.80235558342397    4.85555477080306   15.26790405856691
C        26.94387151724388    5.98057411319787   13.37429449673457
C        26.49402214815620    5.03444442508523   12.46147586521326
H        25.44558877499703    4.76115463099767   12.47064972523846
C        27.37517048765878    4.44432137125227   11.57409308784835
H        27.01832458126601    3.70445158584786   10.87180483488745
C        28.71235000304687    4.80531189194244   11.58730771186996
H        29.40290037720415    4.34949005122763   10.89253516870216
C        29.16732340795694    5.74831929833308   12.49608988068749
H        30.21255243013768    6.02372170211601   12.51069624749387
C        28.28733581839215    6.33515552571901   13.38695301646150
H        28.63676021449908    7.06112513839416   14.10863065275592
C        26.66275773789126    7.09236026530082   15.95243039933265
C        27.29410036634911    5.99689827305807   16.53383807218056
H        27.27074459595621    5.04047777181212   16.02528040068590
C        27.94800004238770    6.13549803175790   17.74228136850438
H        28.44077032889641    5.28481381378278   18.19167864357328
C        27.97050792627853    7.36686889554413   18.38026018254729
H        28.48100691503605    7.47346073135014   19.32651367899803
C        27.33887115408094    8.45724328800672   17.80624693157315
H        27.35473902435040    9.41634788796919   18.30394155277824
C        26.68294979112152    8.31941437029976   16.59641345435301
H        26.17900686182816    9.15445718994123   16.13594798375329
C        23.40071450735303    7.59179454558948   16.65417439291403
C        23.29302749674117    8.95712573481875   16.43614114285553
H        22.95057507411394    9.29620863476973   15.46801486805235
C        23.62326396746365    9.84412694272714   17.44496339605477
H        23.53176627660666   10.90878873480344   17.28157398589315
C        24.07050550558698    9.36733548688361   18.66656069647778
H        24.32405458233092   10.05927678185687   19.45699951105675
C        24.20090120920979    8.00288493679285   18.87745505092356
H        24.56190156584287    7.63419734755248   19.82717322218712
C        23.87176427591107    7.11448831527991   17.87220544712018
H        23.97369202431495    6.04663848625539   18.02387460819950
C        22.02799190799549    5.15444694243901   16.06139175960648
C        21.18232330861641    5.41595575435492   17.13113604664038
H        21.20621671697401    6.38796602557235   17.60439407024193
C        20.32699058852583    4.43156124683140   17.59230375806048
H        19.67193388948261    4.63431389995279   18.42778941834209
C        20.30632190457495    3.18659241579978   16.98411230228632
H        19.63554661358842    2.42058166882856   17.34555714105646
C        21.14511223408087    2.92473005033747   15.91246131451742
H        21.13042586930150    1.95154912087055   15.44154197345971
C        21.99932089891709    3.90800124657320   15.44862280881816
H        22.66172942212470    3.72263010280112   14.61411303123023
C        25.23729074168855   10.00936996901159   11.52111692016823
H        25.96217735040978    9.77185059584139   10.74900226336109
H        24.94954280107592   11.04702290479587   11.39086440641574
H        24.35393385299740    9.39366229247310   11.35466882692287
C        27.82140733686728    9.75810869043317   13.24780501666647
H        28.24247517121288    9.55039109964720   14.22751105170200
H        28.16764327128315   10.74073280683050   12.94254460890858
H        28.22925019450283    9.03209446999960   12.55028909048730
C        25.28752218026436   11.15701142219419   14.35361716545188
H        24.20297005705802   11.18023501528569   14.37746397863442
H        25.62597095496399   12.09535633234584   13.92449168336436
H        25.63982673591734   11.12486628809962   15.37979873481290
C        19.85477640149020    8.41917827662108   15.68620301570550
H        19.48479352191312    7.62342491315606   16.32607710245225
H        19.01997774350024    9.07923178578891   15.46970000549863
H        20.58596433563280    8.98596189170332   16.25448156394009
C        19.45865009951032    6.25386109752792   13.54034888075992
H        19.64916099410413    5.96400730017284   12.51176482612104
H        18.41108617023139    6.52777745190640   13.61446582318897
H        19.61799385186519    5.38075738448837   14.16778403008642
C        20.56792886840150    9.04457783072311   12.70882839132852
H        20.92456709893467    9.99977370924429   13.07881344873027
H        19.56511865100748    9.19274541887247   12.32390598321894
H        21.20619755736156    8.75554343877205   11.87939276868118
C        25.03243866533255    6.59087143904477    9.53381516315625
C        24.85354370984352    6.29564299766015    8.18462844851598
H        23.88628443412005    5.96493109236099    7.83085461807074
C        25.91011991635441    6.43712457374133    7.30421048711533
H        25.77308074782219    6.20472347710239    6.25793481262101
C        27.14362457455302    6.87749576144393    7.75971031344518
H        27.96542612031416    6.98413796315070    7.06687888553169
C        27.31903569558421    7.19018194271974    9.09744033742359
H        28.27625489356302    7.54418872767075    9.45128950742427
C        26.26497812977686    7.05059626183601    9.98227876616871
H        26.37873181225930    7.30335391690127   11.02734491742661
C        22.27966723603814    7.06083362751842    9.81760673089626
C        22.42732559954026    8.30861881511182    9.21254139032407
H        23.38799666564491    8.80429385363097    9.24646546421644
C        21.35812178323349    8.90512419895849    8.57340094591743
H        21.48228408566089    9.87033192720345    8.10473506786526
C        20.12681806995996    8.26964294973949    8.53867543277402
H        19.28987518399580    8.73820274124690    8.04265691765452
C        19.97271516582489    7.03362114462008    9.14307566430167
H        19.01414894261806    6.53607965998384    9.11799020951522
C        21.04062861713706    6.43055795847074    9.78307579912006
H        20.91298660625325    5.46553610857076   10.25116549158242
C        23.34964883738797    4.62586980469780   10.79939112436164
C        22.45146810988289    4.22961982349924   11.79027799917171
H        22.05136798920842    4.98201497915489   12.46154365321142
C        22.10324550271635    2.89825604664329   11.91709389947198
H        21.39182737145051    2.59642796720168   12.67199484023296
C        22.67316048341477    1.95177892396078   11.07903235326431
H        22.40747780591860    0.90966365321281   11.18052363131357
C        23.59338249400020    2.33949269468279   10.11919975257499
H        24.04796549304759    1.59803360403164    9.47784337743755
C        23.93313494505055    3.67393154329759    9.97316842504810
H        24.65314700322098    3.97115813165212    9.22412603937325
N        25.20349155085771    8.21157032419253   13.80395362759933
N        22.22927269516917    7.16905159836784   14.11330579897901
Si       25.91259027083801    9.69884281525916   13.28515142946070
Si       20.58783012329621    7.70752139907278   14.06873380217584
P        25.71343421047204    6.83738572020889   14.41750328922769
P        23.03543183978771    6.44826542809523   15.28511181920867
P        23.69471050100965    6.41178220116731   10.75871031128580
Cu       23.75078666537725    7.30681100186879   12.79810745261686

