78
CSD_code = JEPSUS | q = 0 | S = 0 | Stoichiometry = C27H37FeN3O10 | MND = 6
Fe        0.12906556984167    3.94873201934359   -0.07626886488096
O        -2.67372990572885    6.67931107144734    1.39129886543653
O        -2.52968545728917    4.46033804927761    1.72378506711321
O         1.50629580500729    8.96934661886266   -2.98455767096032
O         1.78001728279282    6.79328213601196   -3.45447935891969
O         4.51060207489506    6.94398338642925    0.22850394759396
O         3.93594611871989    7.55389344293989   -1.86685710482094
O         0.79415771105277    3.25459491401344    3.57313028317664
O        -0.75855282326584    4.86603004682663    3.75618764067577
O         0.65277560000724    4.33030390828125   -2.93297179150115
O        -2.44115085477033    2.84338814402662   -0.80473369123273
N         1.54208526931643    4.92790853918006    1.03629036426522
N         0.04353413137725    7.31790589918787   -0.67890859980951
N         1.07336789951605    1.19812647676509    0.63023478520812
C         0.28921022679675    4.64248291196289    1.69001337602928
C        -0.60997935325123    5.55430922454038    0.97708358876619
C         0.14962075356077    6.84276690851970    0.69546049514147
C         1.24805141483551    7.31892241941742   -1.26099976608786
C         2.24744927302804    6.87328950587876   -0.42970034663030
C         1.62178125756833    6.41575571210237    0.86084139705571
C        -2.01526093179523    5.66112140885542    1.38233075325677
C        -3.89208077318984    4.46234251372831    2.11312316904472
C        -1.20817411991145    7.84287538169686   -1.19109073697852
C        -1.56825488712244    7.20594717913819   -2.53015240833985
C        -1.16058900407965    9.36967488386620   -1.27887034919322
C         1.51823540281506    7.81370746096464   -2.65002708732346
C         2.14580606146759    7.11027025833607   -4.78970793640951
C         3.65319759027160    7.09364051133603   -0.62220578489350
C         5.28765306576198    7.88278622326854   -2.14066815462018
C         2.74386371157975    4.22741528090891    1.53620497174029
C         3.66384380519867    3.83987061662156    0.38129568774659
C         3.51412778686780    5.00036120498298    2.60458639540668
C         0.16829650102153    4.16940498128531    3.07688405011508
C        -1.05601335438077    4.40788524689283    5.06470003947502
C         0.47241527157968    4.27759123551466   -1.80101163172582
C        -1.42808199395976    3.28004405935151   -0.48734621239285
C         0.77173657170657    2.25106252252160    0.23477900093511
C         1.35381117782390   -0.00922794192456    1.30144515915549
C         2.42146533361719    0.28695154072863    2.35867482956766
C         1.85265241182684   -1.02992403253171    0.27663208211426
C         0.05641290450280   -0.47848459073457    1.96591800035923
H        -0.17578765458254    7.64429925786792    1.37173927191509
H         2.10747946753064    6.84963839010020    1.73811915233028
H        -1.96560873602934    7.56111427069093   -0.45465379312331
H         2.36526062376736    3.30700926264277    1.99123760944386
H        -4.03059895139777    5.07075187023990    3.00977193845735
H        -4.51470431995833    4.86851609020173    1.31291684440733
H        -4.15353615212941    3.42546011487637    2.30862445358066
H        -0.89190468078855    7.53280703654104   -3.31535798256824
H        -1.52426936073040    6.12144409580669   -2.45342162591089
H        -2.57817369226062    7.49422545248483   -2.80933576726730
H        -0.94484484964996    9.79400571380595   -0.30125445559595
H        -0.39436645826024    9.69600818357745   -1.97620419357624
H        -2.12433786951697    9.74571341276353   -1.61059837817535
H         1.46693010034143    7.85825414954325   -5.20519067252291
H         3.16324414030724    7.50494926935099   -4.80824354123045
H         2.08528085289238    6.18030838653092   -5.34902435224090
H         5.83121741175339    8.03154825377271   -1.20546849687021
H         5.75347508266622    7.07219163174416   -2.70603690940560
H         5.28562098983166    8.79825469764041   -2.73057423314795
H         3.08228245723094    3.41486363273844   -0.43592411180189
H         4.21219031634829    4.70184831627471    0.02034797323537
H         4.38277313438360    3.09977696049851    0.72319926778098
H         4.04411548874641    5.84323160537128    2.16859452564223
H         2.84870707240272    5.34303097959820    3.39494429016928
H         4.24701157817657    4.33404196677072    3.05265519142371
H        -1.58110670065019    3.45129079322299    5.01777384590171
H        -0.13742883349470    4.27911912179131    5.64163799133912
H        -1.68942350517690    5.16711300711017    5.51638219851126
H         3.33861738474206    0.63264082579516    1.88689523338382
H         2.06542690864848    1.05702415031651    3.03997677993363
H         2.63771936903673   -0.61387070313862    2.92665633519581
H         1.09332583327858   -1.20794431065984   -0.48152311297514
H         2.75258148888562   -0.66611246866769   -0.21407298257441
H         2.07996806670596   -1.96990058691207    0.77218934444780
H        -0.28766909864246    0.27291141273543    2.67272846860210
H        -0.71938913781737   -0.63449503449412    1.21971207438161
H         0.22849770778797   -1.41105648836095    2.49673536622531

