106
CSD_code = JEPTUW | q = 0 | S = 0 | Stoichiometry = C55H46IrOP3 | MND = 5
Ir       28.40420809405147    0.90005329996617   18.16804692177831
P        27.54690429355559   -0.47205455078521   16.43429621149106
P        27.85220476786624    0.39102966353832   20.38408522789064
P        29.51147021938997    2.84439513843164   17.44296147513944
O        30.91208383608513   -0.76221900055954   18.43912503450334
C        26.39720562957273    0.12733429533446   15.14265713706133
C        26.52061897161380   -0.84273031347775   20.65314845477157
C        29.96072398939790   -0.11620829496051   18.30820325154592
C        28.68852391650993    3.70992104947077   16.06368182153870
C        25.79661460029113    1.37097155075323   15.27338495198772
H        25.99817431979154    1.96026087996883   16.15574100323688
C        25.41607139082615   -0.73673125773551   19.81340697782457
H        25.41791046737252    0.02560171465725   19.04524917141739
C        26.70521129385926   -1.98669233204912   17.01753435097993
C        26.74241830677866    4.89111159649791   15.27776234339760
H        25.80216917103007    5.38339282121804   15.48246299227032
C        27.46733539169548    4.33410395526652   16.31255662691886
H        27.09166128154152    4.37148264506906   17.32656669853035
C        29.52913485960312    5.53413288571310   18.42650461402442
H        29.26428429717766    5.86934772727998   17.43321253815665
C        30.06730122762563    3.76982856375416   19.96364738582923
H        30.19463560380695    2.70953500749579   20.15278603046008
C        29.70781836595034    4.17940829158895   18.68283814046795
C        24.34401949261655   -1.59611594237420   19.94868115082387
H        23.49034826800405   -1.50227094122385   19.29343142898882
C        25.31477529832185   -0.15289808808295   13.01377650927080
H        25.12639422372952   -0.74805160789293   12.13156105496671
C        26.15150792804655   -0.63478589998891   14.00159161443606
H        26.61955920359136   -1.60425561582849   13.89227323395788
C        30.23703231928336    4.69294480818467   20.97643414836980
H        30.51422561621629    4.36558407091678   21.96815095714411
C        24.96167896656154    1.85310859336491   14.28030499350078
H        24.50396903987847    2.82551509917462   14.38850986152316
C        29.69014361912319    6.45691733568257   19.44620826991061
H        29.54240539590894    7.50819213852209   19.24322350676956
C        29.93674243484455    0.55367285866836   22.25880772941249
H        29.61828102988817    1.57553481719728   22.41546640024528
C        29.33437335780498   -2.43565158575647   15.36443426685500
H        28.93303332957348   -3.15141425301435   16.06749562037683
C        29.34831834757562   -0.24289615357874   14.38635697196206
H        28.94778878820889    0.76385087930894   14.35196343320674
C        29.21571197255632   -0.26714539830362   21.39752140566652
C        30.87549777569200   -1.91004748880701   13.59639844946837
H        31.67507120788260   -2.20910511975657   12.93439890621570
C        30.36488892513274   -0.62230636426462   13.53294085577412
H        30.76577718364419    0.08656239165858   12.82244177965567
C        30.35814744140972   -2.81118700445340   14.51064961795826
H        30.75323785263201   -3.81579359506635   14.56126904626021
C        25.46528932718915   -2.69691148562995   21.75767323777958
H        25.48748029335492   -3.46552938197727   22.51746043706645
C        25.51822505826264   -4.24178151518621   18.13605979391105
H        25.05603540291952   -5.11690511342915   18.56832374297427
C        31.05203254250618    0.06614197917189   22.91572623174316
H        31.60357646736329    0.70949919346110   23.58654272875673
C        31.46635052217171   -1.23949259763564   22.71214969634666
H        32.33881117382938   -1.61729990393253   23.22481424495508
C        26.79600044582956   -3.86919403694434   18.52330257169158
H        27.32970455429081   -4.45238482850770   19.26028986736661
C        24.83281434275065   -3.48055140762272   17.20609731154505
H        23.83109471295768   -3.76116527350377   16.91309537885888
C        30.76500937437710   -2.05751265345658   21.84045125499056
H        31.09238228227321   -3.07318022981360   21.67005838296139
C        26.85026832767155    1.38650957046799   22.81610561059027
H        26.93386816252271    0.37016108365723   23.17483069661003
C        27.08645228101775    2.99648138806353   21.05115992459691
H        27.35393002055438    3.21937536047954   20.02821649619509
C        26.53527835756318   -1.82779172305360   21.63370634842714
H        27.38176659810326   -1.92707662329746   22.29909654167450
C        24.72051102721574    1.09292939821499   13.14963666042379
H        24.07198690360877    1.46805479277831   12.37117926928920
C        27.21523841519767    4.81133269905606   13.97697949596490
H        26.64477844608745    5.23861821761740   13.16530174494491
C        27.20461745414053    1.69079315584402   21.50447519866134
C        25.41796419126133   -2.35632763865678   16.64859740423959
H        24.86738352303380   -1.76486902831715   15.93126502993803
C        29.65307366348632   -1.57207360085627   21.18053273468304
H        29.10875957678743   -2.20445853541056   20.49136040599215
C        28.41898586987328    4.17788462675202   13.72021614091316
H        28.78795115950529    4.10982131830409   12.70663160479884
C        26.29436193583129    3.68891967110084   23.20407085554353
H        25.94479723528383    4.46528613179404   23.86916294934400
C        32.12882292696226    3.81549604581410   16.93282283100321
H        31.83723371291250    4.72303171261467   17.44155220218791
C        32.89611920372178    1.49467293309334   15.62055145873736
H        33.18737137020143    0.58783485519330   15.11021806265757
C        26.39786700778791    2.38309118050016   23.65933144580318
H        26.12638844836565    2.14328254147174   24.67752041706690
C        26.63651958282556    3.99396110517251   21.89820808549565
H        26.55741129494946    5.00989256496692   21.53863784565930
C        29.15460566366815    3.62955493167943   14.75609200165395
H        30.09668922860265    3.14016877226663   14.54926853291104
C        31.62502392407846    1.60394270883929   16.15215828566905
H        30.92567861270209    0.78448038439836   16.05624213558358
C        31.22773804135607    2.76353569225228   16.80897757283593
C        24.36966534924667   -2.58399638688320   20.91964431771423
H        23.53768613731608   -3.26527601741523   21.02269666921608
C        30.04061568532248    6.04082916881905   20.71960015056709
H        30.16023405314926    6.76610990162754   21.51115880930138
C        28.81961572186773   -1.14772888910738   15.30670772103367
C        27.37711300014342   -2.74408322221237   17.97579614117584
H        28.36219399252045   -2.42570498207866   18.29438918662086
C        33.40351779168958    3.70113224476035   16.40760140522813
H        34.09969148961321    4.52118693295570   16.51113038745198
C        33.79017457472025    2.54449023658966   15.75041397434266
H        34.78718982911327    2.46154704299633   15.34287760046331
H        27.09204039609789    1.75341226251888   18.11828219206405

