90
CSD_code = JEPTED | q = 0 | S = 0 | Stoichiometry = C41H41NiO4P3 | MND = 4
Ni        4.82522495581784    5.74537495724772    8.28683305630229
P         4.75379939729467    3.71728878508831    9.16578404805146
P         2.88012348875638    6.68094776791381    8.51350444537989
P         5.42493084368415    6.76887952049721    5.85305462689240
O         6.63711398481370    6.01688064042784    7.94925036804628
O         4.51022063394292    5.61101662895225    5.74882319400714
O         6.72945626050266    6.56623606705700    4.90851653537390
O         4.85016799194816    8.15061753146914    5.27208704005964
C         5.99055426134320    7.03886372304953    7.56596324610630
C         6.18185589165776    8.42996925601405    8.10833089531185
C         6.19234773056751    8.45114254309972    9.63312549721810
C         7.35182369472469    5.29486000963744    4.88289959514251
C         4.19366557602839    8.11365301143953    4.01716958571965
C         5.46267751233647    3.67024019991378   10.84906763866965
C         5.12769149679984    2.72860161281442   11.81545506480894
C         5.73007696316573    2.77414361549370   13.06065506438419
C         6.66654923590941    3.75335134501959   13.35046594946307
C         7.00485281993471    4.69368166150038   12.39056651989510
C         6.40334616813546    4.65176074971594   11.14683307717441
C         3.23270695629962    2.73512835358864    9.42016554630921
C         2.97090118598833    1.55185123490833    8.74180172473111
C         1.77954689699103    0.87842652519374    8.94999864301607
C         0.83802801448688    1.38059674953632    9.83083796193115
C         1.08835258930043    2.56611712579732   10.50365994066415
C         2.27471346890021    3.24065217124621   10.29568763579858
C         5.80664965152675    2.50821681502997    8.29124552572117
C         5.81813748287268    2.60273719189517    6.90253265518050
C         6.57989297388374    1.72797455878185    6.15060202247144
C         7.34244427574362    0.75861333399933    6.78246454720845
C         7.34085275660764    0.66794531101813    8.16477368457290
C         6.57528910567406    1.53781425898078    8.92167844723327
C         1.52413923332626    5.50104204404019    8.16129428967097
C         1.80803424172701    4.49667708921276    7.24025440611619
C         0.84553257954055    3.56420125758134    6.90253946751927
C        -0.40578107806984    3.61910080035397    7.49343254973247
C        -0.69056929395644    4.61150501456061    8.41610287809238
C         0.26737479569441    5.55232364588639    8.75041424096667
C         2.34143271935281    8.10080439425409    7.50192787001425
C         1.62845825516017    7.91841808118037    6.32270347081231
C         1.29252895867681    9.00684686902261    5.53780911945129
C         1.67827012436611   10.28336170262257    5.91179627225897
C         2.40471329853340   10.47021595848381    7.07676698261120
C         2.73661774559478    9.38600881620039    7.86640849003947
C         2.43952751360362    7.25118119984776   10.19433170787800
C         1.40909521943112    8.14455193495837   10.46892502084631
C         1.12108149524611    8.48939646362045   11.77762308458857
C         1.85450946008038    7.94946661442942   12.82213762577707
C         2.88911256369816    7.06757501243126   12.55633411178537
C         3.17976116592477    6.72567344330901   11.24853414596434
H         5.38948026700725    9.06391639165935    7.70492052386681
H         7.13722614459005    8.80214623362398    7.72155701711201
H         6.24800756199546    9.47167727794605   10.00685236553551
H         5.27999199577797    7.98488784599302   10.01542291142203
H         7.04834187287341    7.89592147723487   10.01139858549377
H         8.08630121334029    5.32259570485099    4.07794668735856
H         7.84514075225773    5.08512776293077    5.83357063136042
H         6.61183846825924    4.51664917546705    4.68946647384929
H         3.59798504953420    9.02279979356427    3.94439881936818
H         4.92637929054861    8.07837798261160    3.20915470496660
H         3.54600666866538    7.23667699068718    3.95568786170593
H         4.39483947178124    1.96526849262404   11.59557711866626
H         5.46787441463663    2.04042531405575   13.80957063835421
H         7.13098442549412    3.78341556262331   14.32548341024939
H         7.73399778490574    5.45848206526896   12.61610001162927
H         6.65079507285106    5.37823480587105   10.38092861931608
H         3.69994766631700    1.15481359582676    8.05042505176939
H         1.58621165366989   -0.04374846318843    8.42089082898434
H        -0.09077411741804    0.85306970593486    9.99105156607130
H         0.35440202405407    2.96649117458574   11.18780846923300
H         2.46845230789465    4.17107562270952   10.81245466259908
H         5.23067659164351    3.37961613975235    6.43002161333786
H         6.58753366161920    1.80169967036075    5.07227527617934
H         7.94421849256557    0.07765483623916    6.19795887284804
H         7.94091959026866   -0.08464479458422    8.65622013559726
H         6.58078612936106    1.46529706214817    9.99983643020807
H         2.79430399986280    4.46529019041336    6.79238700724819
H         1.07196984816868    2.78898643919122    6.18528490656978
H        -1.15831225928103    2.88697327122068    7.23890548608541
H        -1.66578330225013    4.65267765409694    8.88007517591797
H         0.03624106840856    6.31589875237546    9.47819221204002
H         1.33570373851910    6.92195141023266    6.02465457252269
H         0.72919780416146    8.85826642999767    4.62726506775899
H         1.41688778576679   11.13134337852587    5.29523294506635
H         2.71266633316661   11.46425610487409    7.36850073902335
H         3.29309093197674    9.53197536525757    8.78309311907947
H         0.84232120654286    8.58098945898391    9.65825068762902
H         0.31955145709867    9.18403919404886   11.98454986107713
H         1.62321639983751    8.22251572464002   13.84125121546395
H         3.47135089961184    6.64952921320022   13.36468699308947
H         3.99829637033538    6.04874638789951   11.02442120733751

