32
CSD_code = JEPVUV | q = 0 | S = 0 | Stoichiometry = C10H18B3Nb | MND = 14
Nb       -0.30899095883779    1.29368137409107   15.87524341563582
B         1.58570655080292    3.17637201044801   16.72192656667688
B         1.67245297884965    4.44265629792803   15.55446644139854
B        -0.03652965977097    4.07409161509927   16.30597955451241
C         1.08718646888423    1.28208151693552   13.63275842472274
C         0.78755709447280    0.00038833729782   14.14727706830207
C        -0.62910702530674   -0.15337434279869   14.12292153565808
C        -1.19024926942566    1.06538675737249   13.63911688519848
C        -0.11651696214474    1.93322022492243   13.32708608175929
C        -2.22059595361999    0.73608136244738   17.24447246847395
C        -1.41258489970632   -0.40228320431686   16.95066686086953
C        -0.20488904655961   -0.28140385610715   17.69764455663656
C        -0.30194638436344    0.89275115539351   18.47887228993951
C        -1.52798548821016    1.51346337522630   18.20173609658881
H         1.41904668023780    1.95540467691740   16.38844235404108
H         1.81691888754883    3.27148747851164   17.87481895575046
H         2.60546709140689    3.52012182042352   16.07302119914528
H         2.05028207468523    5.50872274187217   15.87545261738978
H         1.66998218131146    4.22789313959437   14.39416653343264
H        -0.38387777151452    4.89994105563436   15.52691343412198
H        -0.43452727986753    4.36360372794158   17.38356499156324
H        -0.76077560199201    3.01893398788054   15.87306036901902
H         2.08044971373858    1.66640052302625   13.43960850249187
H         1.50347692157692   -0.79695001403185   14.30465748197062
H        -1.15075805193858   -1.10518579016605   14.15635159021427
H        -2.22006143309963    1.20759921204341   13.33550949404091
H        -0.20933738937161    2.90412855178700   12.85873498886727
H        -3.26284656318810    0.85471026367570   16.97486728016682
H        -1.77788464043774   -1.32320221274756   16.50583692843207
H         0.53517884567514   -1.06186628048198   17.82601537510648
H         0.41677855607475    1.21835074049859   19.21915568152045
H        -1.91241966591079    2.39849375368203   18.69045397635306

