43
CSD_code = JEPVEI | q = 0 | S = 0 | Stoichiometry = C15H17Cl2N5OS2Zn | MND = 4
Zn       -0.59580922704710    0.35085533532122    3.11610667193991
Cl       -0.79375698191059    4.95911299862822    2.60427548948487
Cl       -3.03786631092086    4.38095979382427   -2.24289592091271
O        -0.99404921261828    2.10071113191541    2.71724168822517
N        -1.68575686006723   -0.45542653261334    1.63516549304412
N        -0.49027830174685   -2.80474229262706    3.23000653789171
N         0.06627924324563   -3.17590260158758    5.97031739498361
H         0.03787554855546   -2.45847060655428    6.78647420327485
H         0.33485263891460   -4.10816968935205    6.28890756624294
C        -1.44115908075587    2.54387265352155    1.61533851038892
C        -1.43893745702027    3.95549433251208    1.36585380421940
C        -1.91321162408896    4.51063531383739    0.20960831456536
H        -1.88750103766840    5.57887034133936    0.06445792099754
C        -2.43432115075537    3.67308856925820   -0.78470463159416
C        -2.46985410699645    2.31799480713117   -0.60920261662370
H        -2.87524660852981    1.68494279277112   -1.38449081034475
C        -1.98117604420926    1.72532148007721    0.57538427275766
C        -2.07252665807748    0.31236645641459    0.67392906672864
H        -2.55813579352238   -0.16218335176383   -0.18846959965458
C        -1.96966161851840   -1.86421486976758    1.49481359512790
H        -2.30663752991462   -2.08848509321172    0.47294275855970
H        -2.78810630969804   -2.10821278569861    2.18056514512524
C        -0.76023396882523   -2.75171794346477    1.80810685961217
H         0.11537824462327   -2.32446092934639    1.31785196102962
H        -0.94169872232609   -3.75570320663664    1.38839487012548
C         0.85950603498967   -3.16848084968118    3.60540103068837
H         1.58036334206967   -2.67686128957137    2.95457163886125
H         1.02437777510109   -4.26012466281657    3.54636169261143
C         1.08793915398788   -2.65927496496487    5.01971424554753
H         2.07936642521807   -2.93154509831138    5.38127182162276
H         1.00782293424614   -1.57335179336519    4.99321398448891
C        -1.32316236383674   -3.19772080891877    5.44451396680344
H        -1.92716688639545   -3.84053578014158    6.08675290824446
H        -1.70668784830826   -2.17899783743872    5.49262392786212
C        -1.38812296758048   -3.64613977836595    3.99136495639219
H        -1.12269656559814   -4.71675895197954    3.89606370299601
H        -2.41482391028350   -3.52436508319562    3.64700412549530
C        -0.70837867369640   -0.15354240876856    6.08996177323928
N        -0.97579298399593    0.11318454594786    4.98312368679645
S        -0.37030842203464   -0.67993790276178    7.56504068348227
C         2.33232507715259   -0.36763179220180    2.96257391080905
N         1.21289857193169   -0.00624233269420    2.90993129964746
S         3.78968023691699   -0.96390931471722    3.04763209920082

