43
CSD_code = JEPWAF | q = 0 | S = 0 | Stoichiometry = C13H17CdCl2N5O5 | MND = 7
Cd       -2.08590968949287   -0.55203890914341   12.75133942226030
Cl        3.15657614928473   -4.91397587532560   10.54260108454838
Cl       -2.08496088834567   -5.02802668523103   11.72661541560124
N        -0.39330402302939    0.24742963717999   11.44010838486721
N        -0.59845621092783    2.44446505887179   13.50490941356890
N        -2.20677492639910    3.34879328929818   15.67519399175428
O        -1.90617477109692   -2.18198678632193   11.48595501474884
C        -0.77193096274572   -2.72034159284333   11.34720291797387
C        -0.64974645775847   -4.15161082602828   11.36650866803492
C         0.52210579509037   -4.81620610578109   11.13960414461086
C         1.67387225750582   -4.07372019921585   10.85581539584806
C         1.63842097128646   -2.70694790086210   10.82622236642083
C         0.44727671330518   -2.00500568330038   11.09258105275815
C         0.49995963608126   -0.58327108559119   11.03533114431164
C        -0.16842230040798    1.64612782430804   11.17338857969413
C         0.34401018429977    2.41285711907463   12.40091437640837
C        -1.76193614853876    3.27331670018981   13.26209886178955
C        -2.78675219186228    3.00400670133167   14.34997563336864
C        -0.95538156214438    2.57944936450363   15.89724423859010
C         0.01502315188961    2.84388594229868   14.75424590047470
N        -4.55467656870596    0.41641000942271   12.57950579105355
O        -3.56713501774665    1.07888206624702   12.17667540042922
O        -4.30546027942418   -0.69053724547861   13.06712672824175
N        -1.27640429453524   -0.96763753954036   15.34723729763504
O        -2.02232704191128    0.01789056884506   15.08175222897185
O        -0.89683002316508   -1.63000120820710   14.38040345763297
H         0.55925975854165   -5.89351158882967   11.17513075739683
H         2.53994221425968   -2.14977388249174   10.61521533366213
H         1.41230470249743   -0.18101711910256   10.56538661574027
H        -1.11264393093169    2.07177604351175   10.82506521091217
H         0.58581926377183    1.77725329013070   10.38087541602311
H         0.62046936005149    3.43570968039364   12.08484966766196
H         1.24651217986516    1.90847628017078   12.75632323482069
H        -2.21772878795145    2.98460074331540   12.31655113270108
H        -1.49971038650513    4.35079546966820   13.22799269117567
H        -3.00541793728993    1.93485129798417   14.34496954750434
H        -3.69963217938478    3.57457272389285   14.18290796594732
H        -1.23136517746179    1.51556108757998   15.87811011347148
H        -0.52024206905245    2.85199500191376   16.85886535031198
H         0.91017516981526    2.24409681371865   14.92405384077253
H         0.31356669217726    3.91328635859222   14.74452609158186
H        -2.00361538705467    4.35554148571223   15.70187422317761
H        -2.88045498585172    3.11847967512720   16.41054589554975

