79
CSD_code = JEPXAD | q = 0 | S = 0 | Stoichiometry = C42H30NiO4P2 | MND = 4
Ni       -1.45044914220840    1.41113792439503    3.96409589014816
P        -3.60725641594919    1.31454918707447    3.75034094341950
P        -1.06029200972965    1.42440025220751    6.09611660417081
O        -0.94489381221304    1.82205524903441   -0.04734790724123
O        -2.42351971606487    0.39057046460072    0.87649462937034
O         2.30547888631036    0.15848209882559    3.11649835418387
O         2.02711196974288    2.13576719237334    4.16365240044960
C        -0.74173025434155    1.21538644170322    2.22108252928478
C         0.21686922765593    1.23492297568988    3.04772865689619
C        -1.34411408238965    1.19436545657527    0.90107286631143
C        -3.10389467110086    0.29904258529210   -0.36217190801955
C         1.61058578655244    1.09493990687736    3.42518143438965
C         3.38595109184823    2.10305819538405    4.56053541279046
C        -4.38995946323191    2.18023790680568    2.34265562518174
C        -5.57362142777020    1.79987928782190    1.79186831555695
C        -6.16459514986516    2.41175325392149    0.72710194033311
C        -5.49836328683168    3.50648031698411    0.17359524465956
C        -4.29245733054132    3.93134437037074    0.70762417332315
C        -3.72918038973844    3.27928054975188    1.78788545209389
C        -4.56689117751664   -0.22178435435546    3.80513104224356
C        -5.56216770125241   -0.19506800804762    4.79605447055910
C        -6.37455186018131   -1.30612935460666    4.97138099852948
C        -6.18807636679116   -2.42205430929769    4.17390390604623
C        -5.19381118830284   -2.44504149541376    3.20721090927351
C        -4.37294844729487   -1.34408770678950    3.02186153502206
C        -4.62161591931700    1.96975298179129    5.10859131026317
C        -5.58477159558871    1.04917063363518    5.54913827889540
C        -6.40110884279377    1.38401528302629    6.61997748974783
C        -6.24666760802979    2.61288333341974    7.23861491012329
C        -5.28985617641899    3.51551519147497    6.79880283773771
C        -4.47175902172180    3.19644261302925    5.72790489245700
C        -2.15778662212259    0.10215555236327    6.63785704147601
C        -3.22259711699880   -0.17286147618801    7.43200426029318
C        -4.22522363991937   -0.94776919817890    7.94044951540613
C        -4.25294341216235   -2.20007118723520    7.31803445238589
C        -3.23620132874618   -2.31530512824929    6.36449236388334
C        -2.50941978583201   -1.16265144845576    6.29167777433011
C        -1.47703284814470    2.66120438640752    7.36286718308829
C        -1.65731361713694    2.30487247419215    8.70450969744959
C        -2.00754557934166    3.27792566811700    9.62008519731089
C        -2.17233788349036    4.59863801224794    9.23297624894317
C        -1.97960241618026    4.96420166701013    7.90269896123968
C        -1.64365407994316    3.97320380432875    7.02572475206133
C         0.50732877663501    0.71571213341715    6.70540873464055
C         0.88338812395253   -0.51590991462753    6.17646664531959
C         2.08942758598692   -1.08497775915892    6.53621359752193
C         2.93164244718771   -0.42074899744442    7.41548838731096
C         2.56631650416926    0.81272568333190    7.92921391745879
C         1.35769458178913    1.38675569978353    7.57348374125545
H        -4.05206649121464   -0.19207215905869   -0.15634050475701
H        -3.27474721421903    1.29599752198637   -0.77459389987979
H        -2.51656315526654   -0.28419932412710   -1.07543929452926
H         3.53081613122488    2.95543906318749    5.21941247565073
H         3.60555856751972    1.17089029973108    5.08629171317376
H         4.03902280174163    2.17953206490202    3.68785800964519
H        -7.10418867715548    2.07601790143815    0.31440090825148
H        -5.92953644493521    4.01486691972498   -0.67695429272686
H        -3.78000758986592    4.77474487395933    0.26750130278638
H        -2.77556141369734    3.58344620799403    2.20750861093374
H        -7.14584805651736   -1.30292164661084    5.72735311327115
H        -6.81997156531853   -3.28779374081866    4.31083344444763
H        -5.05596527599635   -3.32859839203196    2.60095245270307
H        -3.58427917951597   -1.35281753180466    2.28452761999599
H        -7.14693430354045    0.68844357967820    6.97550470535895
H        -6.87701268310673    2.87057628788545    8.07741377965888
H        -5.17681263925030    4.46632854868055    7.29834085329701
H        -3.71214442652684    3.88530038392663    5.38437696352974
H        -4.90133682493870   -0.62458478605395    8.71169648341968
H        -4.96777135229668   -2.97849174075763    7.54282585148433
H        -3.05701431523234   -3.18302087422378    5.75579835993144
H         0.22460618414927   -1.01585737814603    5.47644232936854
H        -1.52183365071211    1.27651023138364    9.00856497134700
H        -2.15312665345731    3.00417837074854   10.65543222947158
H        -2.44705043830006    5.35071582661513    9.95902605981451
H        -2.09773513047319    5.99209394041272    7.59299761679488
H         2.38032561123647   -2.03869529468603    6.12203247458687
H         3.87846900256869   -0.86105342377911    7.69226542654978
H         3.22925397781391    1.33410992927299    8.60468764776040
H         1.07837160811314    2.35554594642458    7.96354688163470

