43
CSD_code = JEPXOR | q = 1 | S = 0 | Stoichiometry = C19H18MoN3O2(1+) | MND = 8
Mo        0.46767790570755    1.30045284837033    4.36273072721980
O        -0.08739294291939    3.14686222061007    6.77570614985093
O         3.34103149629607    1.10634574469440    5.50218304681251
N        -1.26399974544937    1.91632142085307    3.32195540611642
N         1.00644719960795    3.07350125150598    3.39248153735050
N         0.91798093630249    0.29934045870995    2.65431258710996
C         0.09674984265418    2.44805667750678    5.89305894030462
C         2.27012241958582    1.11311962792980    5.09112586098114
C         1.22680112248789   -0.16623756065069    1.64727999282073
C         1.61854852956025   -0.77036374783092    0.41398530171096
C        -1.03508190370172    0.13973645593448    5.76650395418180
C        -0.19328468333124   -0.73109685346563    5.07550099363708
C         1.18097917425465   -0.72139505632771    5.47072164799856
C         2.12125704002616   -1.64480805972414    4.84684280823723
C         3.28063183538900   -1.99221925037226    5.39597198291807
C        -2.33862736950000    1.15977503070274    3.08785347052520
C        -3.49736242818097    1.63597581611561    2.50672619851393
C        -3.56257849026586    2.97410122501332    2.13776338024859
C        -2.43139227340538    3.74944177678347    2.29878832628194
C        -1.28828512601132    3.18941141873267    2.87293485593911
C         0.00082356351198    3.86114344898039    2.94193990857476
C         0.22359550931229    5.16913779868618    2.50723371364956
C         1.50747463336851    5.67464416170525    2.48785623379838
C         2.54604381813001    4.83638894752320    2.88003762953429
C         2.25113257054503    3.56477111721967    3.32638375442859
H         1.13739875047377   -0.26291787859750   -0.42235748799423
H         1.32955455326692   -1.82195293964562    0.40485490566793
H         2.70062217081910   -0.69994415297729    0.29814400640031
H        -2.10047094182546    0.12844225180667    5.56245172901347
H        -0.80814792870845    0.34751261423647    6.80890332172422
H        -0.55298814439964   -1.44093107335633    4.33216000750875
H         1.36228761772113   -0.55463706267447    6.53530158093427
H         1.83214182064614   -2.04997980113529    3.88293448913975
H         3.95552069487207   -2.67688748412594    4.91379308178348
H         3.59081861680089   -1.60720752782365    6.35312747223190
H        -2.27026256297678    0.11750655176290    3.36927893622101
H        -4.33541785190140    0.97544160884087    2.35548835960905
H        -4.46189990858304    3.39005896023984    1.71346831724985
H        -2.43256100435075    4.77792331748080    1.97949795959158
H        -0.60326792456175    5.78360669717856    2.19250553806081
H         1.69896626111346    6.68620486651952    2.16902737788968
H         3.56982824584419    5.17192427057596    2.85659489026125
H         3.04698490177054    2.91162986248559    3.65924710597674

