38
CSD_code = JEPXEH | q = 0 | S = 0 | Stoichiometry = C14H21PSTi | MND = 13
Ti        2.11143313543285    3.09607773383887    0.66940985928471
S        -0.28429641712989    3.09617729045644    0.30700735636200
P         1.66759951152091    3.09582424473934   -1.86244885292834
C         0.37391780002654    3.09612969689048    1.91870234377445
C         3.05345467269102    3.09599622304766   -3.09097725897542
C         0.65554586963890    1.72035828418432   -2.55067961596002
C         3.66821690192763    1.65831348403217    1.83036364400280
C         2.36458342934672    1.14489123241431    1.96285011803313
C         1.91283085047382    0.76377255572484    0.67867293673863
C         2.95138166905923    1.03716830940494   -0.23592074191062
C         4.02546545995540    1.60237784060550    0.47440068330344
H         0.08490054762519    2.19660195027823    2.46482811112321
H         4.32464639037413    1.91124237560625    2.65097925669847
H         1.88058284823733    0.91649464654151    2.90338239791572
H         0.98715954614940    0.24346634386653    0.45809357433587
H         2.99901377308277    0.69967214312919   -1.26217966943351
H         5.00085257789211    1.82569816178472    0.06294582649975
H         2.65463035088292    3.09605055102234   -4.10548988479356
H         3.67493398520335    2.21331056156533   -2.94981739461235
H         1.12856619069672    0.75412309547259   -2.39033466688938
H         0.51239217545179    1.88023609043925   -3.62021228796032
H        -0.31034899734316    1.72727935040321   -2.04661676755608
C         3.66830957666599    4.53367014101052    1.83044861745746
C         2.36470652438392    5.04716158099483    1.96296604474235
C         1.91298054085676    5.42839358520006    0.67881250082612
C         2.95151788004501    5.15500023394879   -0.23579623847247
C         4.02556646639406    4.58968315250186    0.47449063482540
C         0.65539493729495    4.47129564393463   -2.55044386317223
H         0.08495555908137    3.99565689777201    2.46485813106919
H         3.67483101778469    3.97873305941447   -2.94968610453984
H         4.32472313496554    4.28064974256030    2.65104874716091
H         1.88072034824090    5.27552779989736    2.90351303701426
H         0.98733912182908    5.94876512716654    0.45826418071459
H         2.99916743368056    5.49255100582520   -1.26203647539247
H         5.00094205866449    4.36633704053162    0.06302252920993
H         1.12835067517627    5.43754284916536   -2.38999783465404
H         0.51220589328527    4.31154047144439   -3.61999013112582
H        -0.31047343954430    4.46422950318294   -2.04633274271517

