65
CSD_code = JEPYIM | q = 0 | S = 0 | Stoichiometry = C34H30Ti | MND = 12
Ti        1.59781602758959    2.99527290217288   12.23110471461328
C         4.19636205879582    2.67265044168751   14.22559214991666
C         2.75349403527889    2.23610796425740   13.83836904754442
C         0.91450221228402    4.26169363649604   13.69288042859199
C         1.05800485546239    3.75438746212362   14.92368188413366
C         1.95516722896726    2.55357269145095   15.13502090110401
C         3.04673707452021    2.94376022242791   16.16884405130712
C         3.89620930277510    1.73653137624045   16.36963535103223
C         4.20748219266367    0.76305592866847   17.22681504456331
C         5.22776729784314   -0.12998106649497   16.57331366164769
C         5.43212104850256    0.49227786186394   15.21783483831191
C         4.65094348647536    1.57145025391740   15.13297717873562
C         3.96502240459343    3.78168556259114   15.26485906373745
C         0.38034564293153    0.99433152668043   12.79336306351063
C        -0.53581929548396    2.06010118667527   12.80536050542763
C        -0.63271944962601    2.56500652446866   11.48836125576806
C         0.18986974462881    1.77909186282646   10.66638493502703
C         0.85809601115326    0.84330536863189   11.47282199893194
C         3.29117965263782    4.43252926494166   11.70294758008883
C         2.17491447307489    4.95649520629146   11.00719640192479
C         1.84195488082387    4.05934181977315    9.98185697371881
C         2.73885314421488    2.98088148010425   10.03131302544904
C         3.63149390372716    3.19719835906159   11.09196126934861
C         0.13767862802036    5.48464815774406   13.44963542670059
C        -1.25440511700566    5.47976912405874   13.33947564726927
C        -1.95209875127352    6.65063689291771   13.10619793204959
C        -1.28156084044883    7.85564376650025   12.98497519104094
C         0.09785168949113    7.88290825773996   13.11287996277111
C         0.79799025117703    6.71485535038307   13.34270103529890
C         0.39828515924957    4.31904733800932   16.12314359778142
C        -0.43240293031648    3.51194158507230   16.89784926134408
C        -1.08490979169024    4.02446183195550   18.00348863310520
C        -0.91426977281476    5.35155883208129   18.35977656216821
C        -0.08416383499531    6.16068692608657   17.60288211680745
C         0.56630731299379    5.65011599032336   16.49494113804053
H         4.88122228845692    2.91028965816322   13.41388540677840
H         2.80322972710019    1.14314514136625   13.67934894622213
H         1.37401831758503    1.69723968246103   15.50020739683254
H         2.65755731242669    3.42531124745269   17.06361377341903
H         3.83847215829680    0.59400511826595   18.22176368241385
H         4.86337149491435   -1.15694039481211   16.49023409947464
H         6.15790972507167   -0.16625573795334   17.14568804522411
H         6.11294678424908    0.08923598334351   14.49033519837488
H         4.88608704957956    4.08557965469312   15.76282589627609
H         3.45526840224712    4.65399978925570   14.85368904919082
H         0.56714453371555    0.31379931533781   13.61401620591395
H        -1.16090067215098    2.33371766257670   13.64509971753546
H        -1.32856155248497    3.32294900899568   11.14934537145172
H         0.22412295689712    1.81978151802850    9.58737174326146
H         1.49753551243995    0.04117667062115   11.12249132616321
H         3.88686403036667    4.96887476212278   12.43056075356403
H         1.74818819721384    5.94244196085583   11.13440927036360
H         1.08591732401855    4.22798171823868    9.22726492057620
H         2.80164187528416    2.17045139208310    9.31777753359033
H         4.51661704530517    2.60334847870495   11.28265729129434
H        -1.79613014328399    4.55174696691596   13.45742385262717
H        -3.02968743468169    6.62371487708328   13.02646234591745
H        -1.82930040706906    8.76840147047313   12.80333431621193
H         0.62853615881642    8.82170380633190   13.03775032797790
H         1.87538760150247    6.74489373680993   13.45720812156616
H        -0.57842340209376    2.47694529169752   16.62212109520494
H        -1.73042141624110    3.38618541854446   18.59004749522953
H        -1.42392776903017    5.75174715956853   19.22400569199074
H         0.05940289942664    7.19562421817595   17.87835669445238
H         1.22051146591866    6.28468253487197   15.91726260207539

