69
CSD_code = JEPYAE | q = 0 | S = 0 | Stoichiometry = C28H32BMoN4O2P | MND = 8
Mo        2.42332393594966    1.24199405358443    3.07394128005577
P         2.65831130726663    3.66300027728205    3.39399367196039
N         2.12124271745710    1.79722422343203    1.01958889069231
N         3.07842346313514    1.98896311205317    0.11660555626901
N         4.48616195927387    1.44881186024160    2.76096956997325
N         5.10562699829707    1.55607240827843    1.58561890146941
C         0.99408825362481    2.28712060516047    0.51793131287612
C         1.22177504704632    2.80227282612789   -0.75496529765643
C         2.56643439735153    2.58325161367691   -0.97138337677463
C         5.41903006044387    1.48072444609026    3.71193481567041
C         6.67663186006469    1.60195402604961    3.13930398922091
C         6.42600586877336    1.63946032445857    1.77995161945901
C         5.41720178680913    2.07500345945880   -0.91484250335062
C         5.74658670851794    3.42322904247053   -0.77637147127393
C         6.53914578265615    4.08159861537394   -1.69848730575589
C         7.02769555963682    3.40039907827493   -2.80046485665627
C         6.71162910227571    2.06353022172288   -2.96549710813480
C         5.91737020244286    1.41567415650201   -2.03441703883231
C         4.34926659378042   -0.25098131307812   -0.09349040080226
C         5.41474628980671   -1.10606173669579    0.18979915164142
C         5.36131424516631   -2.45799581890596   -0.09988228862725
C         4.22704728891014   -2.99896162057649   -0.68199452338595
C         3.15804467424531   -2.17190648171912   -0.97819288907655
C         3.22585318258903   -0.81819243672747   -0.69270119007067
C         0.26282250073616    0.17274222580118    3.04231701602732
C         1.42900849221648   -0.57101370997607    2.46290677436804
C         2.32623729404349   -1.10029974852753    3.39553987268747
C         3.49865739682322   -1.84545169800482    2.98232586132886
C         4.32526644248124   -2.45712002847287    3.82554630271223
C         0.58051977844438    1.62904931901367    3.65796135003973
C         2.68598843819655    0.89059097600126    4.94924646029283
C         2.43375538732762    4.12663527338890    5.14246341909291
C         1.41076284559275    4.73395156744410    2.60219248519524
C         4.19226686376615    4.58188314288116    2.98204060348663
O        -0.24854580017772    2.29932053830312    4.18845101395069
O         2.74319999342814    0.67196490432075    6.07805539531203
B         4.47454084868494    1.34077131157901    0.18108172254267
H         0.07575887579164    2.27614416346829    1.07638275675263
H         0.51408666160302    3.26030333182790   -1.41513294972533
H         3.17253699387515    2.80815975537858   -1.82484797203212
H         5.15284892569405    1.42383390238829    4.75174619836734
H         7.62506975338555    1.65050615863015    3.63324037848144
H         7.10922125983214    1.72417525612526    0.95910973097362
H         5.37319588004132    3.97256544073813    0.07871502938027
H         6.77728322610332    5.12719468118705   -1.55895281445874
H         7.64825334839987    3.90901128989665   -3.52428861242314
H         7.08498529317624    1.52265048549074   -3.82375974961449
H         5.67917050371476    0.37155537642905   -2.17976861571141
H         6.30864338733599   -0.70210413350659    0.64593200169683
H         6.20596246263342   -3.09277413791979    0.12866126837032
H         4.17894809417266   -4.05453573908429   -0.90743935193649
H         2.26992770964406   -2.58151383239874   -1.44019534741386
H         2.38545844759111   -0.19028050310977   -0.96126243567366
H        -0.16373508932849   -0.36539146916554    3.90131385508461
H        -0.52161555637496    0.33341307288597    2.29464698766518
H         1.38296657532586   -0.93080754298658    1.43677546395995
H         1.97444371912982   -1.32539542333967    4.40292426082605
H         3.69290691189893   -1.87718114823824    1.91786401753755
H         5.19366794735809   -2.99012658202217    3.48039267668587
H         4.16461927673203   -2.43452342271379    4.89141240173975
H         1.46458173991567    3.75266036447841    5.46820404216802
H         2.47488784346099    5.20918304726459    5.26653052703696
H         3.21290905189980    3.65614550630169    5.74075109901870
H         1.51083421107991    4.68563382165486    1.51894071746171
H         1.54311851429465    5.76345663374722    2.93648341115559
H         0.42139327621724    4.38344787733747    2.88996586951962
H         4.38249325759008    4.49152931683042    1.91253196686055
H         5.03436475326047    4.15763028550015    3.52874623992322
H         4.07927497746308    5.63472515063065    3.24210016238647

