89
CSD_code = JEPZIQ | q = 0 | S = 0 | Stoichiometry = C34H50ClFeNP2 | MND = 4
Fe        0.39739459576619   -0.07192735990428    7.38700910162070
Cl       -1.42631516391487   -1.15449611637003    7.48127267056846
P        -0.08905422623376    1.11224396686325    5.59152872911423
P         1.33579740906140   -0.99268924025059    9.15756985272676
N         2.01387808169387    0.88879451995599    7.30839368973592
C         1.18249643826867    2.46182125487378    5.62142011264785
H         1.55918941367893    2.72619105336444    4.63039228713699
H         0.71302504924887    3.35230397627640    6.05096080369168
C         2.26805426921113    1.97599353723062    6.52347779638467
C         3.56338273343516    2.41455341607991    6.72437713597531
C         4.13439292215801    1.53398688959142    7.70402923178512
C         3.14601221230082    0.62150939862107    8.02195289500904
C         3.12121046212555   -0.52296181472887    8.98016631572177
H         3.60100779760620   -0.27321901082876    9.92959842199450
H         3.65136600625931   -1.37864771408185    8.55103967781561
C         4.24942466991901    3.47854788874842    6.00609466391477
C         3.61041780072844    4.68162957998870    5.70868222360681
H         2.59837597471366    4.84454191694995    6.04985526592140
C         4.26749429497258    5.67799326172177    5.01159554585216
H         3.75822286476704    6.60690350669638    4.79503164442763
C         5.57537195495100    5.49349478977638    4.59650146809756
H         6.08855204094389    6.27374791336194    4.05330436669840
C         6.22135197247084    4.30187165695642    4.88423723611423
H         7.24171055839164    4.14930632738441    4.56212287623678
C         5.56659773380623    3.30382654382331    5.57799996881608
H         6.07209578640611    2.37327640651971    5.79097859828935
C         5.44904373963346    1.65163022739309    8.31748648873907
C         5.95958698856346    2.90663186600825    8.65385816481429
H         5.36980266755670    3.78837180460821    8.45003054734532
C         7.20096710571604    3.02772122613216    9.24558927007084
H         7.58087500038374    4.00771702353502    9.49738040928135
C         7.95799505163917    1.90012025211099    9.52065459024639
H         8.92961870118852    1.99610177294338    9.98299407901207
C         7.46097918043912    0.64912219847555    9.19706268849694
H         8.04734278745449   -0.23531927907028    9.40458947847473
C         6.21949649437249    0.52502704037727    8.60231490973155
H         5.85099810952731   -0.45355266913938    8.33086862755376
C        -1.70554150862215    2.07231902678210    5.42028651713522
C        -2.84039824378026    1.13295088826771    5.01751187792777
H        -2.79877053923484    0.89843473583914    3.95684888819714
H        -2.79406380992242    0.20993762411672    5.59217958284718
H        -3.80041878266654    1.60837213844981    5.21577498050361
C        -1.64832665778493    3.26400628518714    4.46633187076738
H        -1.40514839838154    2.95100617688157    3.45466261034365
H        -2.62406887243200    3.74882887025392    4.44269654809649
H        -0.91738750691757    4.00478269421272    4.78043813440616
C        -1.95708921228677    2.54746513134888    6.85813672595715
H        -1.15270200380939    3.19042844999045    7.21684376485273
H        -2.88863391542162    3.10784882712846    6.91791808846484
H        -2.03362390094174    1.68411440870853    7.52340676238198
C         0.35626466862050    0.09706761368657    4.05790902208021
C        -0.60865799629352   -1.08474037564553    3.93669528239562
H        -1.55881870065067   -0.78899550321056    3.50343025505669
H        -0.17486093771632   -1.85146727379935    3.29542699018619
H        -0.80011375214983   -1.52585970356611    4.91483170017943
C         1.73778480387395   -0.46695908105670    4.41672515213875
H         2.47936888233846    0.32120859702718    4.53192377519075
H         1.67506433182366   -1.02441869696922    5.36435459064645
H         2.08180702600993   -1.15013715352587    3.64117038159044
C         0.41736643124845    0.86315689087797    2.74073989594371
H        -0.57231375047990    1.19409644508082    2.43451287585571
H         1.07300207667284    1.72897046761494    2.80406149050457
H         0.80499019304669    0.20868925427322    1.96024296044958
C         0.77119482590112   -0.06195154239049   10.70465896169256
C         1.57029453558954   -0.32518674273727   11.97660793471250
H         1.41527475618101   -1.34112839490177   12.33230210486502
H         2.63589143641723   -0.16429807513611   11.82826467028610
H         1.23699557088743    0.35532331471373   12.75985824053493
C         0.90334798092158    1.40692478172004   10.27984672842182
H         1.93734659120230    1.67762144051912   10.07467927386579
H         0.31219162412068    1.58274922331413    9.36747091764804
H         0.52632140961818    2.06376847987253   11.06274345649597
C        -0.71369985359947   -0.34182095046534   10.94748916160997
H        -0.87106233454722   -1.30249988941764   11.42719665370240
H        -1.13355992806980    0.42664037046113   11.59587937226928
H        -1.26432586422948   -0.33360223689186   10.00694174777441
C         1.42314358083076   -2.86436067940082    9.39094838781789
C         2.56436412046715   -3.35003116714931   10.28274908791114
H         3.53853607959975   -3.07312848768610    9.88796091279717
H         2.47752973293320   -2.95159280405998   11.28978278373308
H         2.52848971721034   -4.43726140601236   10.34735240195775
C         1.61660350784306   -3.36268328367456    7.95209166978282
H         2.53585045560286   -2.97549928814764    7.51153185795857
H         1.66256824320749   -4.45015551512139    7.92698222420938
H         0.77411322311668   -3.04147202243345    7.33484494844966
C         0.09001981262528   -3.39815802580788    9.91073060088653
H        -0.73979542944116   -2.93803791444937    9.37786916682912
H         0.03834708764043   -4.47515758091998    9.75419104243585
H        -0.01965028490310   -3.21227635177940   10.97614313360840

