75
CSD_code = JEQBIT | q = 0 | S = 0 | Stoichiometry = C24H47FeNP2 | MND = 4
Fe        5.31039737204482    2.97607486391395    2.60222601348073
P         3.27844951956057    3.19786254832070    3.30430275417637
N         5.31040711359195    4.83652536452983    2.60237584522558
C         3.11679111689702    5.00338022552414    3.71165994716157
H         2.18064652700514    5.43158341884949    3.34509067935134
H         3.14043291283345    5.13511691026198    4.79787798098872
C         4.31808043441157    5.64565166175247    3.08659636988230
C         4.67078508923777    6.96589867628841    2.91590725575632
C         3.89215636076978    8.17888844618017    3.30109655723796
H         2.93682378185051    7.89982769894516    3.74065454515876
H         3.70406653814555    8.80890922472820    2.43068840024729
H         4.44444441557500    8.77636796486810    4.02779632850092
C         2.80007361467895    2.29643626016830    4.88386632204330
C         4.08966203354529    2.44439769925077    5.70265811315093
H         4.91499581716414    2.00163971130629    5.13287987407040
H         4.00781321364108    1.92453032322253    6.65608689987633
H         4.32144311535395    3.49176690727623    5.90207170743833
C         2.60063439793720    0.81439210597553    4.58275592910982
H         3.38730276281202    0.47040621488269    3.91544732516209
H         1.63228879693816    0.62800844711128    4.12555248779458
H         2.65424996344956    0.23585759362447    5.50442384513083
C         1.59664473252012    2.86618168977214    5.62965112454777
H         1.42222498789661    2.28494730068591    6.53484557537831
H         0.69842852355115    2.81679455016548    5.01897156603830
H         1.75511911161653    3.90148219663284    5.92249706207575
C         2.11228997697534    2.92649112587828    1.84917622997481
C         2.75258243142387    3.81033780573018    0.76998380691057
H         2.23628918073272    3.68925042975084   -0.18187602667190
H         3.80455107270224    3.50864513994924    0.63890463372447
H         2.73186115650275    4.86440549506444    1.04061258412643
C         2.24134596756703    1.47358632535666    1.38809085774384
H         3.27789092424703    1.14999331731928    1.47675308586212
H         1.93617781559789    1.38213968134988    0.34607620149970
H         1.62029247484005    0.80556688897705    1.97664474985189
C         0.65107659103031    3.29915700351822    2.07477005687633
H         0.54592301710173    4.32488424563498    2.42233408694781
H         0.19058429035921    2.63685279601132    2.80459725348785
H         0.09969156847734    3.20287532853480    1.13964855828868
H         5.31020778923138    1.07934327336883    2.60233920986993
P         7.34238307654706    3.19786668979752    1.90039019819476
C         7.50403248412388    5.00339510341152    1.49310016194417
H         8.44016478854363    5.43157187279768    1.85973204381329
H         7.48043938134360    5.13517568625968    0.40688854023130
C         6.30271461250415    5.64564892875395    2.11812587672390
C         5.94994756892234    6.96589545170549    2.28868224584261
C         6.72852569571445    8.17886933586028    1.90334154541479
H         7.68386070571291    7.89978865184010    1.46379971592145
H         6.91661046617288    8.80899984827418    2.77366976505536
H         6.17620258447511    8.77623990554594    1.17657942168052
C         7.82076054232972    2.29648722899185    0.32080359150988
C         6.53117771831246    2.44445824052674   -0.49799876224106
H         5.70585351340118    2.00167117230870    0.07176580765728
H         6.61303715637486    1.92461310818116   -1.45143976217716
H         6.29937500799778    3.49182820266919   -0.69738724604386
C         8.02021989439610    0.81443365027228    0.62185518116095
H         7.23354169845688    0.47042927164352    1.28913882679499
H         8.98855615051988    0.62804475854380    1.07907534668346
H         7.96661911341058    0.23592331087625   -0.29982953851484
C         9.02418754145512    2.86627685259633   -0.42495135397389
H         9.19864401445209    2.28507073189097   -1.33015790689319
H         9.92238845839153    2.81690180640611    0.18575206001650
H         8.86568853415225    3.90158122349064   -0.71777234484653
C         8.50853562441439    2.92641499832463    3.35550893323435
C         7.86827224319507    3.81024754377601    4.43472962506561
H         8.38457538920554    3.68912209233335    5.38657908189197
H         6.81629578309907    3.50857843880454    4.56582158390265
H         7.88901578770022    4.86432122189613    4.16412896579459
C         8.37941636567364    1.47350484187045    3.81655970035633
H         7.34285862200119    1.14995960766349    3.72786514230974
H         8.68455991278404    1.38200910765749    4.85857765179623
H         9.00044515803146    0.80547578745972    3.22799310655699
C         9.96976038359831    3.29903207371284    3.12990901346733
H        10.07492914519408    4.32474428098319    2.78230207210961
H        10.43022417012288    2.63669117290152    2.40009707478543
H        10.52115419741305    3.20277093930902    4.06502883727193

