55
CSD_code = JEQJOH | q = 0 | S = 0 | Stoichiometry = C9H26B18CoN | MND = 10
Co        4.75820770826109    4.24707101075184    2.23940514129324
N         5.61944317330625    2.36426933785221    0.03583318444822
C         7.26905918820144    2.47791416873137   -1.69034501475789
H         8.30875054296147    2.58714042429431   -1.95285917517236
B         4.53190243742253    1.85162091252950    4.73820768003069
H         4.24376088131703    1.89554952788855    5.87764903576059
C         4.98313781758306    2.16213483120870   -2.25877138621472
H         4.19247296640186    2.01873217188329   -2.97691421506853
C         3.81304739295327    3.02197817118077    3.68441227638565
H         3.08230456225487    3.63962028907264    4.19590273829280
C         6.29981566813320    2.32020993693889   -2.67257177431579
H         6.56181395831364    2.30821978612944   -3.71755783073250
C         6.89935143469246    2.49378418687761   -0.36542801612891
H         7.63252348462414    2.59565946987706    0.41678438937724
B         6.05823009878545    7.17502214539033    1.27949550371016
H         7.14611318500315    7.60429147912540    1.14078865723256
C         5.29733321014385    3.23457978588498    4.05090003714407
H         5.51841311715087    3.99631837499360    4.79402522457308
B         4.94901306120599    6.65211538028091    0.00261414708037
H         5.19290248605799    6.81264598046777   -1.14041120697956
B         6.12660874374929    1.18965152452803    2.48423782140547
H         6.98342693645303    0.54770839186650    1.98692432055985
B         3.29443940504559    6.76701201609838    0.65939979065393
H         2.36012803032602    7.00880053776304   -0.01695363515009
B         3.43760566143747    1.37586710353395    3.45922820082227
H         2.35949639410226    0.99152094493875    3.72880325677464
B         6.17114682298878    1.76379680195544    4.13795192832814
H         7.06379049174379    1.67726426774139    4.90034900667247
B         3.21105114040352    5.59119817101112    1.97982054632721
H         2.19313279710192    5.14738838617959    2.37757957100260
C         5.79344594011610    6.02752628118103    2.50538671758928
H         6.59597066076363    5.82961861450718    3.20938547287529
B         5.80344648135378    5.43530218692659    0.95657818251081
H         6.75761240526768    4.88152314981444    0.53643495425287
C         4.35463473990047    6.10229007654307    3.06783824694822
H         4.23475144975854    5.95870211755412    4.13951817406838
B         4.98491521554984    0.52234092038563    3.67056362079746
H         5.04776331103542   -0.58821950649987    4.05418464783905
C         4.68209779932653    2.18849794187887   -0.91675149990372
H         3.67375414748766    2.04997723303031   -0.56582041075153
B         3.61212171365936    2.54296786252075    2.11122581245750
H         2.59864321891536    2.74182433114713    1.54839433893162
B         3.43093682171280    7.32919125711995    2.32398401902981
H         2.60653089208414    7.87517661196867    2.96442474177028
B         6.30236123098697    2.93089064553412    2.78663081392389
H         7.34619511954650    3.48222014539780    2.72691099249247
B         4.50506357935183    8.00241540196689    1.08000925041759
H         4.42738275302327    9.11825241308524    0.71146440129629
B         5.25150759165224    2.40096177294685    1.48452521002257
B         5.11883731164133    7.60095522580156    2.68797264635860
H         5.51130005176444    8.25241541392224    3.58675279412293
B         4.10222350426623    5.17531903882015    0.53309043713367
H         3.73912812921622    4.43145860626437   -0.30894419657264
B         4.39401018870632    0.93955155660552    2.04970114909685
H         4.06834294478759    0.12045518460188    1.26513927993689

