62
CSD_code = JEQLEZ | q = 0 | S = 0 | Stoichiometry = C22H37ClORu | MND = 8
C        10.35425743038607    9.79548862523712    7.06083684850528
C        10.91448774364055    8.53065313877386    6.35743442723574
H        11.60367213255426    8.85742866266410    5.57106020212584
H        11.49610580372238    7.98075688167607    7.10484503462943
C         9.87741623056278    7.61273628670313    5.81036210989733
C         9.89458941713760    7.28584760742470    4.33990855951088
C        11.16295291591879    6.50224823893962    3.95314139608482
H        12.03417658072913    7.13269278840133    4.13453755811568
H        11.22919863463387    5.62628051055521    4.60258602214827
C        11.12375549178320    6.07485347740483    2.48941752865769
H        12.04234584415280    5.53834486397264    2.24398909003909
H        10.28301212244378    5.39505583556180    2.34032096630842
C        10.96124514833138    7.28865546481006    1.58078489039323
H        10.93695117622877    6.97205528473677    0.53645272681322
H        11.81481671872098    7.95873302294138    1.70959026167427
C         9.67358764041479    8.02739820774178    1.93086992242869
H         8.82279279088810    7.36537800419635    1.75474832675412
H         9.55292616336307    8.90241574972263    1.28957042219793
C         9.68956133334784    8.47382777186597    3.39153705770065
H         8.74915715450403    8.96966496459696    3.64814830106586
H        10.50145051722106    9.18582439377913    3.54416487013807
C         9.57424164676791    9.39265968115444    8.30698989783024
H         8.80589254157126    8.67116853996270    8.02618392449747
H         9.09471420659164   10.26015498700530    8.75322630530320
H        10.23564608515152    8.94435605921678    9.04386332418671
C         9.42308296926435   10.55561538793735    6.11820730811003
H         9.93968581894778   10.84976198252548    5.20778940592124
H         9.05256296923966   11.45550596213539    6.60365677915793
H         8.57120902645250    9.93034181858710    5.85941939343388
C        11.53265182235276   10.69021548245759    7.45334704873026
H        12.21894460865406   10.16042697775838    8.11078865848952
H        11.17323366744589   11.57402383833327    7.97528051434650
H        12.08342477377232   11.01631391949268    6.57328997830200
C         7.91208732493448    5.99498374700891    8.56644429454600
C         9.25257250052459    5.54805644948897    8.33996494342386
C         9.20822684137559    4.60236157550310    7.26267049724361
C         7.81476361390993    4.35752625870897    6.94099230488662
C         7.03067460130071    5.19963324030711    7.72654143351263
C         7.41783689880958    6.81545133411571    9.71912570571872
H         8.21130875502302    7.42430648676227   10.14399875602043
H         7.03433646895639    6.15313657552409   10.49876035230445
H         6.60765432719087    7.47241532405872    9.40696684885945
C        10.45039212035909    5.82186788279060    9.19862919942301
H        11.35428979847906    5.91413535995620    8.59974438080495
H        10.58827517476001    4.99218762828634    9.89548864237585
H        10.32084376877966    6.73321950535343    9.77520337977830
C        10.33703197913515    3.70948756781576    6.84130140727660
H        10.22942537434855    3.40699741601960    5.80101334740365
H        10.34389689121299    2.80623937583719    7.45606529323791
H        11.29622479306905    4.21000055216749    6.96112964364763
C         7.35703339907420    3.31206585538439    5.97286559598516
H         6.30565322601208    3.43701899643430    5.72399884572276
H         7.49486253268652    2.31906293962662    6.40615290443846
H         7.93391291020732    3.35930911112743    5.04948097577210
C         5.53746592501983    5.24551372756557    7.82962910149416
H         5.16642460182731    6.25554764488771    7.65359253241756
H         5.22746531172982    4.94075404581654    8.83108242583419
H         5.07164837045050    4.58216987054538    7.10439007451560
H         7.99101480474921    6.87123552502053    3.95768284747425
Cl        6.69018476758992    7.85009052066259    5.77938372759184
O         8.78012236672712    6.35314989887114    4.21146156361661
Ru        8.48502142487157    6.48269116608095    6.45588991394114

