61
CSD_code = JERCEO | q = 0 | S = 0 | Stoichiometry = C25H33P2V | MND = 9
V         0.13449819930638    0.77517365120448    4.82927801967546
P         0.82220183345998   -1.35220628557891    5.44525923375395
P         2.20745113029160    1.26082953755507    3.90967300196607
C        -0.19018710648600    0.93937865464193    7.04437689421089
C         0.72121144131753    1.92051547864729    6.63332909567781
C         0.06419377214188    2.76763439565010    5.71591501141238
C        -1.24503404838210    2.28718643698227    5.54991281484975
C        -1.39705914682372    1.14543837877536    6.35938107360850
C        -0.71165593802853    1.07904371739679    3.13271142639256
C        -0.64214799510285   -0.21945381211525    3.31603207721835
C        -1.34099811870603    1.96424748102356    2.18888112341038
C        -1.08142828161586    3.33813730326415    2.19214004217116
C        -1.69584640305001    4.17840197348504    1.28463798103100
C        -2.58889066465078    3.66852625986268    0.35574087701226
C        -2.86082557965662    2.30907060569557    0.34121046716919
C        -2.24414379678728    1.46409192792732    1.24203487964351
C        -1.14006056893195   -1.39420120691632    2.66240849998638
C        -0.50112709384774   -1.95265282763856    1.54736281462663
C        -1.00738578880999   -3.08251621320326    0.93542933502519
C        -2.16492300536628   -3.68019358319860    1.40849157950950
C        -2.82293246320068   -3.12479749676238    2.49513243483477
C        -2.32021939088790   -1.99924827319049    3.11622837512248
C         2.00144610812655   -1.56426081283036    6.86180685497341
C         1.63200849316828   -2.52078844419236    4.27019949696900
C        -0.50393399263703   -2.48150393437107    6.03614389934411
C         3.84100797472344    0.74136649537940    4.61345098275120
C         2.40695752783055    0.63467772276786    2.19660866716643
C         2.64981706875418    3.02448879287494    3.60282636919316
H        -0.03612273742064    0.22266339605266    7.83943554570812
H         1.70358211278601    2.08916725609056    7.06104164668943
H         0.44408220227531    3.70686017389839    5.34102826901603
H        -2.03816777619565    2.77483887832554    4.99806221472496
H        -2.32364460829263    0.60961403152938    6.52993034612268
H        -0.39565449938302    3.73935886100306    2.92533945046203
H        -1.48362286920123    5.23878238657540    1.30107478847361
H        -3.07264726805391    4.32702227475403   -0.35130194209028
H        -3.55926586860496    1.90769020653692   -0.37980889597178
H        -2.45696469849415    0.40398620110739    1.23054543283021
H         0.39217248647515   -1.47844175093760    1.16272837627918
H        -0.49815507066875   -3.49894182372167    0.07713300343768
H        -2.55679216940887   -4.56434253875645    0.92764502388771
H        -3.73651715279568   -3.57498896005281    2.85840524369765
H        -2.84418298106833   -1.55254210863677    3.95217680434302
H         2.79080820741719   -0.81758243409214    6.80461766840283
H         2.44247228988645   -2.56092172780632    6.84358008484007
H         1.46958248863729   -1.43200320366685    7.80156684347402
H         2.60648961280344   -2.13686367434236    3.97335240331701
H         1.00837584056073   -2.62623556374613    3.38542676145629
H         1.75515396674840   -3.49606470970128    4.74280273855999
H        -1.12783627225120   -2.75453799179086    5.18717404998102
H        -0.07562030089263   -3.38046224645069    6.48171200791963
H        -1.11546204790156   -1.96325626792849    6.77255703229473
H         3.88084129963618   -0.34312381657661    4.69157363718267
H         3.95182593652596    1.17103771366069    5.60869524110948
H         4.65856244016189    1.09127781011679    3.98237257492767
H         3.37829137567307    0.92152033384235    1.79126622170283
H         1.60703927875261    1.05665567731743    1.58946546212081
H         2.30986114406251   -0.44883430210200    2.19876633270039
H         2.75794069701689    3.54520732474249    4.55281897675236
H         3.58543849540863    3.09386369318206    3.04632715386557
H         1.85124227994230    3.48681097924086    3.02638617299155

