60
CSD_code = JERCIS | q = 0 | S = 0 | Stoichiometry = C26H32PV | MND = 10
V         1.39440792929254    5.27199987509378   11.42327484548860
P         0.12572642127767    3.85448362746228   10.01447146358771
C         1.22915782198087    4.15118183817507   13.35724803048844
C         1.67694230628511    3.23821758778588   12.38459096086940
C         2.91504765614966    3.68983930172025   11.88979376850202
C         3.22968377403545    4.88552953399748   12.54744633764722
C         2.18931295645696    5.17080486750228   13.45891939647885
C         1.79914659172088    6.14191184388038    9.55009397897392
C         2.09986987008559    7.04286640709251   10.59689858805364
C         1.19648256394655    7.39403426682532   11.61576704367193
C         1.63836865822382    8.46866921958264   12.53147467544519
C         2.84523812952401    8.45436941157184   13.22707477174030
C         3.22355547225883    9.52829297474020   14.01233442682957
C         2.41749641215122   10.65031728625831   14.10010510767621
C         1.23940155536191   10.69946245042886   13.37414126660614
C         0.85751773621158    9.62392509286660   12.59452300717808
C        -0.11385773112924    6.78684094030328   11.72841407905993
C        -0.72779486779955    6.76899627492628   13.13131418708846
C        -1.78161727282784    7.84236409395001   13.42728926804353
C        -1.11025949678053    6.92899267036684   10.66141524015547
C        -0.92700981212732    7.84179515915497    9.61324250576661
C        -1.89576112451495    8.02944221984513    8.64637035964086
C        -3.09273908140905    7.33314092339573    8.70462978334391
C        -3.30823662480975    6.44851372857388    9.75050291108536
C        -2.33614258719913    6.25002081565130   10.71154615521818
C        -0.69172813551259    4.34038558830504    8.43341713828840
C         1.18438867223496    2.54442932797517    9.26248022589566
C        -1.25016009842096    2.82659183525514   10.69546412873204
H         0.37453907655335    4.01045460563380   14.00590922804029
H         1.23538557612558    2.26935910418960   12.19473626432949
H         3.55606009700044    3.15946329255665   11.19771829764260
H         4.16900821247836    5.41531365371562   12.45929663425162
H         2.20515619472077    5.94024813723728   14.21752598124382
H         2.64096557657582    5.88169923738025    8.90804948541032
H         0.88991086591570    6.31183938395531    8.98247466953806
H         3.10848820828564    7.44796538017413   10.68047529710632
H         3.49652571682101    7.59589259214332   13.15931065884817
H         4.15691001184135    9.49121147514052   14.55673733207073
H         2.71367203697384   11.48692372109666   14.71597730316965
H         0.61862320960465   11.58373962712254   13.40969597818126
H        -0.04019520509814    9.68304409091895   11.99576424496366
H         0.06897125750937    6.86630335451590   13.87127042535785
H        -1.20266889112323    5.79394784429142   13.27925283219106
H        -2.29154165689343    7.60422131149925   14.35958290781742
H        -1.32300907366260    8.82015094145955   13.53959330942850
H        -2.52520475689294    7.89592093451493   12.63548295836082
H        -0.01856591120185    8.42951776535279    9.57723087611800
H        -1.72470425527827    8.73912581078341    7.84896905261582
H        -3.85286283786003    7.48824081608856    7.95345537246571
H        -4.24551789814455    5.91301569074859    9.81607425441997
H        -2.52563782099842    5.56091423388313   11.52131842332820
H        -1.27133900894149    3.49243628039446    8.06695889191745
H        -1.35405618058829    5.18887358860978    8.57388226067944
H         0.06779027327952    4.59762147245051    7.69744630449054
H         0.60710138752616    1.97540861147284    8.53309379394118
H         2.01874943659134    3.03313759540579    8.76056484424664
H         1.57606744836434    1.86953982714744   10.01767344443087
H        -1.38974195223503    1.92851072825794   10.09357049987541
H        -1.04303395062367    2.54921312899188   11.72592672778054
H        -2.16028288129015    3.42172660018195   10.66983779418217

