52
CSD_code = JERCAL | q = 0 | S = 0 | Stoichiometry = C18H20CdN6O7 | MND = 6
Cd        6.58513484547909    1.64792075756454    9.72603743887741
N         7.33859988889862    1.88469264715130    7.14573273067781
N         7.23932348279782    2.27121845149974   12.29261824042593
N         4.17911994405635    1.55492887512719   10.19184438006278
N         5.69877050591653    3.77178952829461    9.66711833727307
N         6.27717245775170   -0.74684959699169    9.89859812464298
N         8.64133761460170    0.65783955038705    9.80341982216862
O         3.05329131502818   -0.84260250730608    6.90359722266460
H         3.70916596283868   -0.93866121241083    6.20581982454080
O         6.40646353065000    1.17013220107464    7.57519547582040
O         7.87790933391497    2.66889208153743    7.92984914869530
O         7.68964061797778    1.79704761297926    5.99481758730154
O         7.73349665094991    2.92910304536589   11.36834823540554
O         6.48084203827383    1.32531030856808   12.00111527690350
O         7.47551618938032    2.53448948873651   13.44656228390755
C         5.05794912649011   -1.48738798925733   10.06149905429470
H         5.29143382081077   -2.47216729869273   10.51096889142677
C         4.11559535546511   -0.75392922934902   11.02452440703532
H         3.38848152012991   -1.47696471651773   11.39878010366317
H         4.70382931565062   -0.38001635873824   11.86414790193614
C         3.33501943162600    0.41426623669765   10.41483271759714
H         2.52773438651392    0.68411132016850   11.12131795449261
C         2.68253612247209    0.00666211648517    9.08796910179404
H         1.94204741861828   -0.77430915544996    9.27066074896896
H         2.17073501180258    0.86144335719875    8.64343875157554
C         3.72548878644242   -0.51616315427992    8.10651685040813
H         4.47503510839503    0.26034520729913    7.92819039521404
C         4.40387375966221   -1.75534852128524    8.69778064081763
H         5.16395067650337   -2.12209162577867    8.00403540834860
H         3.64816967968170   -2.53553404532428    8.81943622298717
C         3.76436813440592    2.69213626038633   10.54980962077923
H         2.79829781357305    2.83018974789037   11.05578333337585
C         4.53551104030639    3.90689215890393   10.30826695147463
C         4.06442011441963    5.14839519052663   10.73406217887380
H         3.12087344635607    5.22234423323279   11.25355450105416
C         4.83287705871203    6.27389343141923   10.48650428671841
H         4.49825812329005    7.24784100579028   10.81165470962638
C         6.03628805698235    6.12119560000713    9.81812718027291
H         6.66611094728662    6.97047443035276    9.60689493503090
C         6.42999094363865    4.84541288656688    9.42958279841139
H         7.36452543726028    4.67214592679085    8.91348806102034
C         7.37450575223875   -1.34592276581993   10.06652964086302
H         7.42301837422109   -2.41471324994364   10.32157838914352
C         8.66170911917026   -0.66711426380039    9.95553512918549
C         9.85712499274028   -1.38103701421463   10.03377386003512
H         9.84280853014104   -2.45364082511355   10.15561291887753
C        11.05409764090832   -0.68891190790769    9.94968020005370
H        11.99555399108641   -1.21529013466707   10.00356778776418
C        11.01753542558940    0.68786672896127    9.80170135255241
H        11.92617632342734    1.26490160829963    9.74011061585830
C         9.78121804510435    1.32092896700470    9.73434783076140
H         9.69376679036049    2.39334461058058    9.62186043833869

