58
CSD_code = JERCOY | q = 0 | S = 0 | Stoichiometry = C26H30PV | MND = 8
V         1.14714756722850    1.71866176399910    3.48226741252149
P         0.11358080172297    2.08250757486517    5.44520377305302
C        -1.46826655161205    2.95727213634455    5.80260675738394
C        -0.14009669488308    0.58232460781813    6.53450261504644
C         1.18454862064385    2.96062331583984    6.69700228466182
C         0.51282705690076    3.48184490374945    3.84520445091927
C        -0.42035474657428    3.24687804544145    2.82172809305443
C        -1.01496209942558    1.96284135405808    2.74974238363830
C        -0.62686390695925    1.04442810536572    3.72270703027017
C         0.97742368775447    4.82086833014258    4.15645765776190
C         0.09365192414312    5.90512856994530    4.21310533860786
C         0.54981300051941    7.17922938987366    4.48769678571320
C         1.89707837567007    7.40737540896838    4.71546526727439
C         2.78631788476679    6.34458967937073    4.67057727411559
C         2.33442879012038    5.06903131604942    4.39825227716341
C        -0.63566263432319    4.27071906629356    1.78321284254250
C         0.45236129076822    4.78728119407462    1.08258238023409
C         0.27282759307488    5.77411496658533    0.13254328138339
C        -0.99575750111884    6.26477846496360   -0.13110103309269
C        -2.08367614628400    5.76227706418430    0.56249183033420
C        -1.90731672475606    4.77315462732767    1.51248452036312
C        -1.89865864432750    1.56575517045407    1.59513854832087
C        -1.25552261138398   -0.30776855434696    3.82574828099328
C         3.31592703057278    1.44226361043500    3.95133484052564
C         3.18710059118428    1.95303871781020    2.65363479553056
C         2.43919494196191    1.03081509284550    1.89737317240183
C         2.14508138016800   -0.07358348098186    2.71770903490129
C         2.66699237522668    0.18725651710902    3.99175121380454
H        -1.28936260292305    4.03199407404259    5.79740760783305
H        -1.80545890465855    2.65543254622617    6.79498646495927
H        -2.23420509185814    2.71272221711918    5.06861063858810
H         0.62555665313288   -0.15712389052560    6.30150433505118
H        -0.05392254855893    0.85509558492666    7.58574989023359
H        -1.12270043928964    0.14703345586707    6.36753224437661
H         0.67097854918127    3.03499659248442    7.65629742290761
H         1.45566601946406    3.95722642318443    6.36057139541430
H         2.09151815408764    2.36668301944845    6.82284918087719
H        -0.95964204625991    5.74090370430586    4.03356118445093
H        -0.15022308699440    8.00196254130553    4.52326876828267
H         2.25195282739622    8.40545580684706    4.92612196567312
H         3.83903729245201    6.51626444916429    4.84651814826437
H         3.02994608877014    4.24019639647940    4.36108019528848
H         1.44317510772576    4.39996892981896    1.28945812595364
H         1.12451847450565    6.16429917952313   -0.40608656669859
H        -1.13572384471364    7.03770895571444   -0.87248300464376
H        -3.07482464782192    6.14543323524053    0.36482404527798
H        -2.75737931661200    4.39542447113390    2.06463242206690
H        -2.90425271593285    1.33210097517126    1.94988359504964
H        -1.50389134991628    0.67442991289874    1.10278311933142
H        -1.96629485222336    2.35943081998880    0.85458588611888
H        -0.63590977006795   -0.98624957495545    4.40981257491314
H        -1.37493936719757   -0.73939076434859    2.82926071106112
H        -2.24943608510144   -0.26020075033243    4.27995348744859
H         3.90166079332276    1.86917322721920    4.75561863932946
H         3.64727982694770    2.85664088222452    2.27381945073774
H         2.24055941074283    1.10081746527889    0.83370182466551
H         1.66550614289521   -0.99133751640990    2.40155052508648
H         2.68284667872787   -0.49939932762274    4.82870261268006

