89
CSD_code = JERDIU | q = 1 | S = 0 | Stoichiometry = C47H39P2Pd(1+) | MND = 5
Pd       10.92444785173843    5.23112672809809   10.13520920463647
P        10.20439794585126    5.03105061539028    7.96974637523251
P         9.62145562291182    7.06039265385831   10.64579687685851
C        10.20820648337977    8.48513913336645    9.67872277907880
C         9.19518780309565    8.93040114833503    8.88957396936184
H         9.29077619969840    9.74580148384467    8.19069149882697
C         7.95973015387155    8.22353382318497    9.02206276916647
H         7.09896337803836    8.50943123132018    8.43965075055467
C         7.96379376094074    7.19743962777958    9.91369163676109
C        11.56067111651679    8.99293047331188    9.77512854531446
C        11.93834078372066   10.20895704844479    9.19919206717970
H        11.21023355443135   10.80224812783916    8.66924724269240
C        13.23659306488597   10.66493585181891    9.31334852291707
H        13.51242124392005   11.60668505831256    8.86424376112057
C        14.18245881141719    9.92761367167832   10.00736407673875
H        15.19432813442057   10.29095447411960   10.09838542270209
C        13.82086973709851    8.72309142417213   10.59093116408838
H        14.55352199187488    8.14976244068578   11.14011806124599
C        12.52577007750910    8.26164050794606   10.47381345611613
H        12.24051747843358    7.31720843778886   10.94175292014978
C         6.89239408145193    6.29335982289448   10.26565023375674
C         7.13473622297237    5.28156834159815   11.19658709271232
H         8.13570592340874    5.18828917232904   11.61498155395672
C         6.13710788370496    4.40971963518211   11.57874484580270
H         6.33808760836237    3.64228285598741   12.31066794063491
C         4.87587844829591    4.51509436756835   11.01474102655748
H         4.09432697632213    3.83065959481188   11.30533929147529
C         4.62245354223132    5.50333492553402   10.07660747884707
H         3.64071990524289    5.58640226881271    9.63559858383271
C         5.61414611033551    6.39027503789622    9.70867779730837
H         5.39785565064461    7.16532285516621    8.99045197258597
C         9.39977384047009    7.74090422045411   12.32282805127024
C         9.43159977271282    6.89889472117967   13.42856392034857
H         9.61165369176555    5.83960437954057   13.29842314261703
C         9.23030638720165    7.41207133598934   14.69707595473151
H         9.25647365442780    6.75478857449663   15.55306666355388
C         8.99612688170785    8.76627616296009   14.86698059035574
H         8.84217114482506    9.16696607533343   15.85689378085368
C         8.95880129864680    9.60656616355284   13.76545909446625
H         8.77417518754296   10.66182269409334   13.89664502036102
C         9.15766521926528    9.10075342086254   12.49442684821693
H         9.12814667101221    9.75719282851892   11.63732200914014
C        10.10740226126067    6.51628673191224    6.94783502154146
C         8.82858710486565    6.65410037468520    6.50367948320702
H         8.49346589078599    7.46621177164594    5.87877917621685
C         7.90882392607595    5.65218896401971    6.94953484337729
H         6.86626627462656    5.69807488157439    6.67862925087962
C         8.43170319934429    4.70348926244412    7.76986560290585
C        11.25937286036370    7.37003664041816    6.74688213302582
C        11.24333903094746    8.44889927497454    5.85868695521918
H        10.34875170430564    8.66418709377906    5.29546312131004
C        12.36910052423086    9.22948843463096    5.68418586694110
H        12.34166292419423   10.06059749233412    4.99594727630905
C        13.53533492612679    8.94390990883979    6.37617358735870
H        14.41568597325191    9.54930440568715    6.22794084976444
C        13.56801879676976    7.87604611454777    7.25944387001444
H        14.47448947320102    7.65106375704996    7.80026332393326
C        12.43919127720996    7.10744224177212    7.45270684010014
H        12.46556692857123    6.27817653770620    8.16873917331874
C         7.76760435646905    3.60021605122338    8.43163726001922
C         8.33488574285366    3.03084392303090    9.57722754052917
H         9.25133430135817    3.46648719391436   10.00164762124779
C         7.73739158866968    1.95591951748058   10.20457497910571
H         8.19058220590564    1.52076300980352   11.08335240557315
C         6.55123057778589    1.43654521453966    9.71024126980531
H         6.08444220526570    0.59549686521263   10.19873099226549
C         5.96678531602746    2.00375986117213    8.58922283802093
H         5.04125594444678    1.60369515971046    8.20462831860397
C         6.56796962624585    3.07068085289302    7.95104191645335
H         6.12189288238615    3.48792639065829    7.06201682684095
C        10.95413362495837    3.77115445978491    6.88351666399375
C        11.78831968726695    4.12620659556322    5.82890840933840
H        11.99874164683063    5.16481267034914    5.62137659114721
C        12.35283346418364    3.13844689237012    5.04007665614459
H        12.99823277048036    3.41731707845102    4.22109035094069
C        12.09193324381229    1.80292087456094    5.29578439045330
H        12.53364542078862    1.03772584020473    4.67646299684662
C        11.26170960300009    1.44943175927399    6.34807360632751
H        11.05375092302886    0.40933626265420    6.54871448500409
C        10.69607370345681    2.42720769066307    7.14436010906757
H        10.04561053640602    2.14755181982974    7.96228276585505
C        12.28402946134521    3.59226822257497   10.00083068780894
H        11.65108141668616    2.73827285742434   10.25184181937282
H        12.95147843370284    3.41894452503302    9.16151415191323
C        12.69347409624981    4.45535251475464   11.02723087868914
H        13.60577754810223    5.04246082259764   10.91346047100369
C        11.78284689032701    4.76146053795142   12.04688858666361
H        12.07171589473067    5.47010478322320   12.81673182317209
H        11.09218251566820    3.97929244788446   12.37817221737050

