73
CSD_code = JERDOA | q = 1 | S = 0 | Stoichiometry = C39H31P2Pd(1+) | MND = 5
Pd        3.02581433752294    9.41106585646182    4.39508642399586
P         4.61385507952644    8.38804737211433    3.06747258072250
P         1.82369087749723   10.30231880169380    2.67541285675800
C         3.85484450893114    8.95629989410459    6.30934789931953
H         4.47135347523043    8.09373179954165    6.54272277318246
H         4.31066125488549    9.92729121784949    6.53312230771011
C         2.46228422911450    8.83333897148879    6.36563522533910
H         2.00634818198152    7.85214446361510    6.50381097661809
C         1.67639116469869    9.92724232072383    5.96091559286397
H         2.00602773978399   10.93600820596123    6.22144199617124
H         0.59772511757719    9.80942172958525    5.91974869587404
C         3.36812590331416    7.34332019780646    2.27088916041543
C         2.27080003841868    6.77458106751300    2.90206971612337
H         2.17073378273798    6.83350761553228    3.99013400582393
C         1.33334487567334    6.10592188099626    2.13063518512369
H         0.47579521755408    5.64579895295770    2.59700261061165
C         1.48894891642736    6.03357680837782    0.75265451027093
H         0.74913797200289    5.51247448850920    0.16461821684800
C         2.56841358144680    6.62695597939431    0.11949346944021
H         2.66227259289802    6.57643655985432   -0.95431808527989
C         3.51813773642599    7.29975536064372    0.87635852989901
C         4.69013970040054    8.03438767237795    0.41767385149936
C         5.17321037377804    8.12903593321907   -0.87841140235286
H         4.66883897971671    7.61702200180125   -1.68338168217169
C         6.31235172211625    8.87485638764745   -1.13329783257438
H         6.68938630210740    8.94271540394466   -2.14224173674980
C         6.97756074395295    9.53016476261976   -0.10828573889177
H         7.86653899619154   10.10293029281302   -0.32336639750207
C         6.50758127929526    9.45105282419669    1.19332738487753
H         7.02154905935712    9.95988087334407    1.99631520727220
C         5.36923306557489    8.70916028739153    1.44989203409088
C         5.83417980784864    7.26927584053719    3.82494982419216
C         5.90868784725998    5.92499460798239    3.47832825057611
H         5.20869211694813    5.51015553243392    2.76672375856507
C         6.87984675126089    5.12726606452587    4.05648924081647
H         6.93770007360274    4.08160796652368    3.79512540227125
C         7.77706527787798    5.66533896035134    4.96569198309959
H         8.53213035655038    5.03692577120096    5.41210866308843
C         7.70740475491799    7.00754359871678    5.30465969424134
H         8.40827198269209    7.42504903160420    6.01159749361465
C         6.73526780815404    7.81049001861938    4.73731590939956
H         6.66494921518216    8.86089450338988    4.99649622058192
C         0.36080762622709    9.48253521017366    2.01422686399194
C        -0.70038499351216    8.95768128955836    2.73137210151602
H        -0.74423982120860    9.07914910549191    3.80518147882029
C        -1.70146359396374    8.28270007903400    2.05153575037298
H        -2.54135296077824    7.87637876792328    2.59403264815226
C        -1.62532645881323    8.12273765449881    0.67560108366787
H        -2.40951664001192    7.59149064177589    0.15811161300461
C        -0.55607276573804    8.63214588200586   -0.04329968118800
H        -0.50896010680151    8.49507574926364   -1.11262401217791
C         0.45194370919103    9.31626165128022    0.61978005386396
C         1.64781203776720    9.92001694936840    0.04465973502991
C         2.00748196126462    9.99148079063588   -1.29316189254926
H         1.37996955767035    9.54795780953819   -2.05097613322518
C         3.17027445916630   10.65274023326345   -1.65310709596373
H         3.44516527192006   10.71573526981714   -2.69492282124839
C         3.97971963245337   11.24762529665671   -0.69656854995696
H         4.87361077668459   11.77079510524094   -0.99834660416065
C         3.64534015465939   11.16955407667498    0.64565296391500
H         4.27077172090197   11.62391990654670    1.40247987242327
C         2.48830480366203   10.50373517754889    1.00708921332010
C         1.47243668626933   12.01800569008982    3.15170424374885
C         2.45292494984705   12.62064479117645    3.94047335346799
H         3.33190820050314   12.03411327364223    4.24783485599805
C         2.31492098552342   13.94365405134916    4.31461040544087
H         3.06962218522859   14.42033351172289    4.92175371466758
C         1.19547957655070   14.65784500366695    3.91200160729809
H         1.08248173560346   15.68832815902790    4.21116521574951
C         0.22082347642876   14.05569787933144    3.13234471433712
H        -0.64714709519549   14.61854785882571    2.82491766064287
C         0.35668628985744   12.73435380688823    2.74128694645620
H        -0.39501415989896   12.25727144804351    2.12872591873117

