97
CSD_code = JERFER | q = 0 | S = 0 | Stoichiometry = C45H42CoN3S6 | MND = 6
Co        5.95383176386227    7.57831228106679    5.80472744981040
S         5.94996076176693    8.22660344783209    8.00959076296996
S         4.39921046568638    6.18647688924059    6.77135033024894
C         4.93739092455588    6.87935810378332    8.22459277969899
N         4.60944825480991    6.40884422252236    9.42172259024640
C         5.15901576522343    6.96831248546838   10.64085428447051
C         6.25693899493930    6.08716986087627   11.18269897111540
C         6.16548347415029    5.53395371796857   12.45200497412811
C         7.17001018743841    4.71003635376214   12.93067291739855
C         8.26956783912608    4.42575013020984   12.13976754689418
C         8.36459154458727    4.97112177036205   10.87002160707193
C         7.36449445034234    5.79822007962471   10.39359069118850
C         3.77167608791823    5.23770076029300    9.59016234763429
C         2.44129061808199    5.62015415194990   10.18469161081080
C         2.05590726520820    5.15531286370042   11.43402498554225
C         0.83915424623553    5.53349485049004   11.97587896080074
C         0.00364392455147    6.38635567914027   11.27587378430276
C         0.38552559123782    6.85822907758406   10.03052813888257
C         1.59814023896910    6.47672935750050    9.48680782253489
S         4.39957362477372    9.08209062470685    5.04055221232054
S         5.62723694905855    6.94284362924489    3.62538692512380
C         4.63934543199676    8.32189953068180    3.54191725772408
N         4.10715738992930    8.76396459834699    2.40903738746788
C         3.27240729169410    9.94809593551011    2.35759670622501
C         1.84639544128136    9.57553938780724    2.04481696685762
C         1.14538255992553    8.74998311903665    2.91585121282514
C        -0.15401874734512    8.37537611763246    2.62808452851602
C        -0.76539685772964    8.82335178864569    1.46844081835947
C        -0.07255666912499    9.64592787267049    0.59745589628767
C         1.23056311082276   10.01697981333864    0.88248260347271
C         4.38136299405885    8.13303829093022    1.13344846700859
C         5.33960827827919    8.96825352266728    0.32216321513583
C         4.98206954790822    9.45174526040888   -0.92837607176348
C         5.86507932125186   10.23157335581620   -1.65575294665951
C         7.10867900413927   10.54158536196053   -1.13345936705325
C         7.46910342318527   10.06683336861516    0.11696246600885
C         6.58999871307456    9.28328076722718    0.84141834710883
S         7.79506573369226    8.84817440397693    5.24662407654640
S         7.73635273312840    6.16380533159894    6.19679058075260
C         8.68848018359717    7.50625581635212    5.77964510811865
N        10.01353539326181    7.50763793529010    5.86532411030846
C        10.80271594238254    8.68828477303884    5.57619994765320
C        11.34774748006343    9.28092576734859    6.85105976557349
C        10.47328597454091    9.65135466032271    7.86628089053466
C        10.96080239576190   10.16640401884302    9.05320778824624
C        12.32557058322358   10.31899504836888    9.23584499790364
C        13.20098473876964    9.95435174937191    8.22759042307658
C        12.71391467632998    9.43255143184308    7.04127927583371
C        10.76098807184919    6.34973115788514    6.31641459264201
C        11.54675125148431    5.75498441506594    5.17660074540249
C        12.93430187156759    5.74736216702416    5.19167784305359
C        13.64187684725618    5.22175156616664    4.12398140157947
C        12.96671703504551    4.70830575164004    3.03027379351033
C        11.58159593764536    4.71793138623952    3.00738599353603
C        10.87434552625701    5.23823684114247    4.07550022802178
H         5.55210313968776    7.96281515516751   10.41114873444252
H         4.34777092292090    7.06652168614110   11.36837293718748
H         5.30591093962870    5.75295356490154   13.07025969833118
H         7.09068906639407    4.28636122910608   13.92109067063865
H         9.05107469622019    3.77975248629121   12.51155361561943
H         9.21982676823939    4.75156229724531   10.24823695898556
H         7.44233147956133    6.22134564998317    9.40328871653306
H         3.62939133506243    4.77926259953487    8.60751229035360
H         4.29581602734394    4.52986422506148   10.24076530394442
H         2.70837181427224    4.48964005624265   11.98199286121568
H         0.54534989328996    5.16352020620896   12.94723508321446
H        -0.94438601943695    6.68274103707759   11.69964873421661
H        -0.26416483229138    7.52348529828351    9.48156879149562
H         1.89809833612753    6.84006072232200    8.51488091806347
H         3.32954685750234   10.44498462076952    3.33011986061246
H         3.67260726253192   10.61939768919910    1.59078157140310
H         1.62424493621955    8.40430374294789    3.82015457152761
H        -0.69171068702563    7.73340443299808    3.30979211117879
H        -1.78078863214876    8.53184839777969    1.24441837573092
H        -0.54539190315399    9.99736726877088   -0.30785235594000
H         1.77190647721076   10.65809234811927    0.20066946028062
H         4.81254771068355    7.14692948490693    1.32832711657304
H         3.43339985732535    8.00727877869542    0.60134878861930
H         4.00989760834872    9.21221061610848   -1.33638695574579
H         5.57910911173832   10.60046344214765   -2.62986103798871
H         7.79613558716262   11.15241390014812   -1.69966109515072
H         8.43789443682394   10.30665953297742    0.52919015901750
H         6.87357177066564    8.91265496307287    1.81531837041961
H        11.61759486621154    8.40371932066191    4.90310009698198
H        10.15837201191033    9.41117766536338    5.06801930629699
H         9.40866423956768    9.53620895415201    7.72472793758036
H        10.27373443240893   10.44963484609075    9.83650077613991
H        12.70601694007200   10.72201220031442   10.16269048294520
H        14.26585453792656   10.07232012064516    8.36537142236256
H        13.39840734058109    9.14522933331407    6.25515942640546
H        11.43006313423737    6.66421179878978    7.12404737369618
H        10.04828136843349    5.61845076879680    6.70736057046844
H        13.46218849127901    6.14976413627505    6.04519181432221
H        14.72181487937684    5.21642641650552    4.14549895678211
H        13.51898988748562    4.30062134013340    2.19663379571481
H        11.05130347955208    4.31758578022507    2.15628606649783
H         9.79435484864300    5.24409923671196    4.06102697593595

