61
CSD_code = JERKOG | q = 0 | S = 0 | Stoichiometry = C15H40OP4Ru | MND = 6
Ru       -0.38851685546441    2.54197978506604    4.21016446726484
P        -1.96575351497377    0.85830021147968    4.04687486210240
P         1.13997613096407    1.75392343548281    5.78260722853493
P        -1.60151560489921    3.70989120344270    5.85966336769285
P         0.91168391036836    1.68285654975355    2.45841245465806
O        -1.12235209718793    5.97969791334777    3.86293510241927
C        -1.43993437553507    3.82517533962315    2.80654058616674
C         0.67304485644980    4.38829938945482    3.72017925097379
C        -0.66953341249511    4.91065823202990    3.43748139157811
C        -2.60695150862001    0.65515556620351    2.33336018170989
C        -3.61847892008927    0.92747129528670    4.85805276642735
C        -1.60592786926901   -0.90095818355592    4.48558556780625
C         1.96729085140108    0.10618691091047    5.62501320313567
C         0.75844946230257    1.56303732423900    7.57903428664639
C         2.63060684145994    2.81507413521622    5.99455517705697
C        -2.26987831517366    2.74779192432299    7.30532847278080
C        -3.13114702190718    4.65666798900354    5.49263021579567
C        -0.68956030295042    5.03675386237310    6.73697031626675
C         2.73886168895555    1.96603049436344    2.47266648974295
C         0.63946836729078    2.22807043060129    0.71472043672470
C         0.98983579518826   -0.13298380801566    2.10641833186629
H        -2.51965467297575    4.01441102916414    2.81798169116042
H        -1.12982512091036    3.63000696660768    1.78080138095629
H         1.24668015369952    4.26077621434010    2.79672395939037
H         1.24136925136287    5.02470775505201    4.40715191982098
H        -1.78749393609391    0.61484509686754    1.62101703977023
H        -3.22102189249995   -0.24165150909736    2.24631736647551
H        -3.20758349708964    1.53592610005031    2.10913304167128
H        -4.05034017285648    1.91347487673142    4.70456606595255
H        -4.27209655282220    0.17493756020469    4.41516077755511
H        -3.52731487983090    0.73807407232258    5.92431557580796
H        -1.40905270510763   -0.94678632145381    5.55704383387012
H        -2.45878090308098   -1.53691385464734    4.24838996531360
H        -0.72689787847430   -1.25699987856706    3.95604466599475
H         2.51612020218970    0.03154284086603    4.69045295336467
H         2.65657747119024   -0.04612488025445    6.45570114443448
H         1.20293291190990   -0.66951821351599    5.64650127767083
H         0.05652603143827    0.74246976096727    7.72043247780726
H         1.67709081838908    1.34193935608107    8.12349292155570
H         0.32148877935354    2.47805119569192    7.96889214029062
H         2.31985842930705    3.74145221504484    6.47483051574258
H         3.37822630499545    2.31694881783983    6.61231396079090
H         3.05295952592426    3.06589744044297    5.02593968410782
H        -1.91947827591951    1.72028006517872    7.27102885407120
H        -1.95561816317787    3.20274507909952    8.24301453006036
H        -3.35723492876562    2.74922196142562    7.26529820422300
H        -3.88629197681246    4.01589312745331    5.04126327879387
H        -3.51189775995331    5.06865463682084    6.42803741123196
H        -2.88147311424137    5.46646003854935    4.80914750974009
H        -0.49384290883141    5.82478059018223    6.01058584173116
H        -1.30094828127709    5.43373027324433    7.54806552203762
H         0.25360628434143    4.65988904513671    7.12932830353360
H         3.18548073738159    1.50405925751697    3.34925927291506
H         3.18006294718397    1.53085599482435    1.57561154527167
H         2.95525856194624    3.03162409485469    2.49287929443914
H         0.80100601206404    3.30204663217112    0.63590490413167
H         1.34377024909838    1.71198962199378    0.06166523868750
H        -0.37576985443247    2.00013143120911    0.39462722990154
H         0.01298599140693   -0.49999660471413    1.80069871447331
H         1.70651107862323   -0.32298114201776    1.30725498828561
H         1.29993762753185   -0.67243074430270    2.99763083962742

