87
CSD_code = JERRUT | q = 0 | S = 0 | Stoichiometry = C42H40O2P2Pt | MND = 4
Pt       -0.35810345532889    0.88788070604062    4.15242343014967
P        -0.56543800515794    3.01822808499745    3.42445682060062
P        -0.30683210854295   -1.28471835985670    4.78686533892513
O        -1.24224509040770   -0.32295696661213    1.59670763169292
O        -2.88161883412161    0.35691260275346    2.96524415637333
C         0.86388307039008    1.49543934696951    5.71964908849030
C         2.17877069165366    1.63577543901101    5.60977807421775
C         0.20296551177011    1.77690865312094    7.04691101271058
C        -1.56741385992015    0.21499342058862    2.64153865465329
C        -3.85571251000302   -0.10369895780434    2.03323175350191
C        -4.17408504001090    0.96532683938363    0.99712755874881
C        -0.04687849827799    3.51611027877954    1.75397382629126
C         0.06652401272199    4.86136729186143    1.40876508945279
C         0.45294509075200    5.21603241601547    0.12990592896885
C         0.73510351437221    4.23545038022317   -0.80891109613292
C         0.63210887119538    2.89774596051341   -0.46651468196149
C         0.24321488456682    2.53553398962927    0.81175901919546
C        -2.33861953129375    3.39784662481517    3.52558043021096
C        -3.01754951022634    2.74621605267334    4.55394410529302
C        -4.37220993443352    2.94633873709514    4.72787890799432
C        -5.05936334950716    3.79070602277687    3.86808822940589
C        -4.38975586074609    4.42928798480359    2.83775082860324
C        -3.02886734412323    4.23684406362805    2.66271623153870
C         0.18245335218969    4.34233647476285    4.43074219157537
C        -0.54087729764497    5.09015037092980    5.35076358581005
C         0.10475970909287    6.02237978843101    6.14500821680892
C         1.47184508725704    6.20657309664005    6.03215232678572
C         2.19877044514585    5.45748256015503    5.11962531203346
C         1.55869736348562    4.52670912535890    4.32604731211050
C         0.21981716736643   -1.90675855567145    6.42087821693934
C        -0.57460198910397   -2.69018851704175    7.24834178975551
C        -0.08285882367784   -3.12603785277245    8.46726309041698
C         1.19753483828668   -2.78408401892264    8.86674913125348
C         1.99310400879153   -2.00266932440806    8.04298610781003
C         1.50839430996968   -1.56640131981461    6.82589704029420
C        -1.87203718392277   -2.16032297116219    4.49808151114409
C        -2.05219376132084   -3.15572805731023    3.54832243101960
C        -3.31277634139656   -3.69406491648264    3.34874848858452
C        -4.39301308850122   -3.24061151747240    4.08601633129549
C        -4.22115309844344   -2.22969420672705    5.02011208132596
C        -2.96810196793941   -1.68612363775192    5.21824425922159
C         0.93546714097600   -2.07014914541967    3.72732925871059
C         1.60859909143737   -1.25665478907016    2.82217951777128
C         2.57130099288015   -1.79796379649925    1.99043301642647
C         2.86767879509467   -3.14947408537924    2.06601111920286
C         2.21267383644865   -3.95849863986751    2.98181844732369
C         1.25005059539504   -3.42245793968989    3.81739852553238
H         2.80537654408841    1.94431742871414    6.44280071642625
H         2.70864120691489    1.45489056955759    4.68340541716170
H        -0.39868933613976    0.92303096605211    7.36982285884233
H         0.94153013570726    1.98957995855327    7.82373057341365
H        -0.45810912645814    2.64290113931853    6.96269697891059
H        -4.73836091429276   -0.35435154456097    2.62749974325850
H        -3.47147688744580   -1.00602609624733    1.54335232450598
H        -4.94560645029716    0.60747098561066    0.32010738581417
H        -4.51899505985704    1.87242786986233    1.48914599236750
H        -3.27914220374672    1.19724548235802    0.42392950299480
H        -0.13828779869131    5.62508479305581    2.14745027700539
H         0.53746842240008    6.25993918062513   -0.13616815292550
H         1.03927178610730    4.51745258986698   -1.80638407763623
H         0.85549391103912    2.13291145863297   -1.19555246277003
H         0.15468211188733    1.49159607741037    1.07897404399120
H        -2.45987861949974    2.06616285153622    5.19687441046720
H        -4.89940028317172    2.43938060689912    5.52277947710737
H        -6.12155512721187    3.94269972712063    3.99469968770637
H        -4.93041731884481    5.07638556536752    2.16177119861425
H        -2.51213377162987    4.72603781740965    1.84902939017622
H        -1.60898482525941    4.94736284680808    5.44323211312946
H        -0.46262508502554    6.60410014876758    6.85734001913819
H         1.97230029395804    6.93168824863151    6.65708040267647
H         3.26643391953375    5.59732441404567    5.03411396478124
H         2.11624646969039    3.93217938772338    3.61504343111001
H        -1.57459173683706   -2.96507417395307    6.94306444139266
H        -0.70418010928538   -3.73666239209866    9.10663901837743
H         1.57527620812780   -3.12574823797177    9.81928988164977
H         2.99229470168053   -1.73344611145320    8.35228673577278
H         2.11302037686816   -0.94306503712598    6.18141926608979
H        -1.21595760371670   -3.49614103482224    2.95491423265814
H        -3.45235676846941   -4.46721440712496    2.60697539598557
H        -5.37354343673590   -3.66394305960845    3.92329566084511
H        -5.06745271012171   -1.86206225025397    5.58254553832498
H        -2.82013706236011   -0.87558978398170    5.92297882871592
H         1.36141503609334   -0.19401618295148    2.78751270696531
H         3.09135270647811   -1.16957408522093    1.28243031568640
H         3.61612164832257   -3.57535092296216    1.41362019901198
H         2.45494521135407   -5.00973937756645    3.04406655175025
H         0.74355564848057   -4.04558415012668    4.54316636283071

