20
CSD_code = JERTOP | q = 0 | S = 0 | Stoichiometry = C8H7MnO4 | MND = 8
Mn        6.59551472935509    1.26661403194603    2.11833455684048
O         5.36501849661843   -1.10213471096372    3.34135570144491
O         4.04794614582922    2.58642700181023    1.50899119584648
O         6.98471085590221    2.40732299760943    4.80244840922451
O         7.77957361668772    2.76096980199403    1.24517141294795
C         5.83921745400349   -0.16820732805281    2.86670420130379
C         5.02894751861951    2.06436566244675    1.77732953393671
C         6.82579336420817    1.97060000834075    3.75385998756674
C         9.91049723792253    2.55133301362496    2.32918697252830
C         8.67823068870893    1.98935307167779    1.65749212238193
C         8.56462858330483    0.57187120077537    1.49494899748379
C         7.57280736635288   -0.02512730467391    0.66384495408754
C         6.62309052443793    0.68112257421640   -0.05569416380758
H        10.69847024054450    2.64019127792129    1.58021046624078
H         9.69799102287392    3.54241935161093    2.72461276808465
H        10.26507660430994    1.90341466096282    3.12692461563281
H         9.35281125773653   -0.05684298077861    1.89762753167777
H         7.54202180601056   -1.11628892927886    0.65036326646847
H         6.84632320632534    1.66081357224708   -0.46765585863636
H         5.90012928024822    0.11128302656414   -0.62785667125361

