67
CSD_code = JERWOT | q = 1 | S = 0 | Stoichiometry = C30H27CdN6O3(1+) | MND = 7
Cd        7.62022993533952   10.49715985775580   12.79472726693572
N         8.04366181394022   11.82020758699088   11.04168118380542
C         9.17526819106747   11.76954549084455   10.35431749620174
H         9.93718903783870   11.09938086812850   10.73476184220259
C         9.40205642615353   12.52181189059323    9.21215441459560
H        10.34016930387251   12.44888403288602    8.68687103872509
C         8.39170656351390   13.36104083490866    8.76698995654275
H         8.52393208128348   13.95997107833239    7.87903972493338
C         7.21007488890488   13.42368183514274    9.48277119627804
H         6.41496992585480   14.07338311756338    9.15687153444453
C         7.06133698437482   12.64057724909219   10.63106780488510
C         5.84182958036072   12.68521102156524   11.43885324105439
C         4.70121711568181   13.58624354596763   11.06778950232752
H         4.29146484542565   13.30869628916893   10.09772406112273
H         5.03173240659399   14.62258930653259   11.01890634465164
H         3.91190649683865   13.50972942736427   11.81293576624303
N         5.81841189102976   11.92469334663040   12.47186942109617
N         5.02671393361313   11.89313152766712   13.47144327602449
C         4.17903340986667   11.04868942947439   13.90774056545691
C         3.58742003346198    9.94140898710270   13.08410808723355
N         4.20668526101496    8.88806127316988   12.71719624943027
N         5.54662360906424    8.68796869528691   12.76929906782464
C         6.05826842044780    7.80612093451139   13.58501123952928
C         5.15148752613390    7.12104545823809   14.55659257799947
H         4.13678580697990    7.49621504564819   14.46592115098195
H         5.49585448833784    7.29281693500955   15.57509501960341
H         5.12964230696128    6.04752444734229   14.37246263183166
C         7.48735857728968    7.51806126115925   13.60250396292160
C         7.96027465511742    6.36658315565256   14.24927025594318
H         7.27434591052872    5.68140090839341   14.71713821092516
C         9.31572370457060    6.10437916263130   14.27861035846359
H         9.68829739860541    5.21638494516328   14.76594557482793
C        10.18697913995486    6.99952320801095   13.67417858892115
H        11.25137767114986    6.83099319600812   13.67078891518121
C         9.64975279507211    8.12641182051149   13.07587527186765
H        10.29294329671254    8.86195437342224   12.60440397072077
N         8.34731525507751    8.38119194880100   13.03223205104001
C         3.73857359303897   11.15462287802638   15.29789174971929
C         2.87189987103878   10.21639635131847   15.86162093712975
H         2.47863965234984    9.40704624782961   15.26389104409902
C         2.50924931394031   10.31528943617575   17.19164342563317
H         1.83850130380682    9.58479393428558   17.61740686133877
C         3.00329312027538   11.34407480885786   17.97701463097902
H         2.71644358038013   11.41787707822519   19.01455077073772
C         3.87037051399828   12.27658875778053   17.42681828232850
H         4.26012564582196   13.07690076020579   18.03739271800679
C         4.23788655805411   12.18434046429275   16.09999842441457
H         4.91732796557826   12.90193175667634   15.66614284310313
C         2.17530288572330   10.06388127596749   12.73437365573865
C         1.51429699017777    8.99807634548230   12.11317673896845
H         2.06315442426000    8.09086691327093   11.91662213236598
C         0.18416677223331    9.11202169567414   11.76556904536235
H        -0.32046854276761    8.28423724861007   11.29188848906911
C        -0.50451794250923   10.28912356509615   12.02274636216390
H        -1.54487046409470   10.37643687537697   11.75010738258162
C         0.14391546518678   11.35438322930294   12.62893015321117
H        -0.39044769652740   12.27104432935116   12.82520346302522
C         1.47370980900665   11.24712218555351   12.98650753702243
H         1.96886594549119   12.08148104907979   13.46079508715124
O         6.17041911168460    9.28264550686672   11.82275279990229
O         6.85717681601259   10.23129052034640   14.84604744672713
O         8.67653942760407   11.35386618103738   14.39863777780030
C         7.82886432555559   10.93091982475306   15.22362611533439
C         7.99099172888972   11.25611669074317   16.68855145365191
H         8.63190338814919   10.50148434966999   17.14089435717640
H         7.02282783693239   11.23827048297113   17.18146744315062
H         8.46831791267546   12.22499576446207   16.80148204932033

