41
CSD_code = JESBIS | q = 0 | S = 0 | Stoichiometry = C15H17CrNO6Si | MND = 9
Cr        2.73926510408582    2.17002849757695    7.14751374902793
Si        3.33033794992624    2.32812497771416   10.60581390650445
C         4.11291604883337    1.94413596475671    8.93720479853384
C         4.59067127368252    2.99414440597857    8.15177256838454
C         4.94462259114752    2.80301578142358    6.80446214150780
C         4.77052898113586    1.55067397745383    6.22053770941027
C         4.29496479877564    0.47580306409217    6.99416726523641
C         3.96035770217802    0.68341688820929    8.33109809103496
C         1.17928734892145    1.76756857062969    7.97274496327487
O         0.16975272670955    1.59833799282968    8.51867570291082
C         1.77724031305596    1.84235497638695    5.63788559786622
O         1.09519763913024    1.66827215674824    4.71640281793367
C         1.83871370681689    3.74319065828297    7.07582272384886
O         1.17246472132780    4.69181132883974    7.06836769462751
O         2.36842101269243    3.50787325357812    9.97876115686342
O         4.61087897237444    2.82215713897785   11.51699654019735
O         2.70751387507241    0.84615505925410   10.95613704889976
N         2.15733510605008    2.88431466713189   12.49704162299877
C         1.54317522932536    4.36866607332911   10.70527343802899
C         1.05103948049730    3.65624394068497   11.97219146510331
C         4.52627487238640    3.05692114637617   12.88893260433747
C         3.14612814966346    3.62983565748144   13.24113617460957
C         1.66788282075955    0.62255185203265   11.85882892091896
C         1.80360739535446    1.59255879782625   13.04069524254556
H         4.75636574495535    3.95929926889259    8.61314693021099
H         5.38568984073145    3.61401621825468    6.23619555136918
H         5.07674186495009    1.38006377486506    5.19423332755090
H         4.23909640217523   -0.51563508184281    6.56008109220611
H         3.63670619843578   -0.14767841428926    8.94425508104807
H         2.10980195496229    5.27272914958955   10.96281861348998
H         0.70440898711953    4.65068200302917   10.06506894138279
H         0.25817470703300    2.96454929508317   11.68729247418011
H         0.65595518415690    4.37580216869411   12.69932298172328
H         4.69425116365929    2.11238868154583   13.42134955503113
H         5.31722538991714    3.75872977608589   13.16694363742772
H         3.10959632306843    4.66861087561207   12.91104615542341
H         2.98021923314208    3.59528043887552   14.32516508538725
H         0.71387267935700    0.77257161793159   11.34052165564607
H         1.72529396195396   -0.41447000969888   12.20051644218119
H         2.62028656229039    1.25125014495342   13.67882512463728
H         0.88003598219101    1.61975326482429   13.63075340649520

