56
CSD_code = JESGAQ | q = 0 | S = 0 | Stoichiometry = C27H24Cl2NPPd | MND = 4
Pd        2.25868409497150    3.13080367168842   14.27090309056498
Cl        1.57272919406576    4.45218980130599   15.98756511009259
Cl        2.01906995071430    4.80894079548552   12.82171887758640
P         3.32583561658332    1.92582871997947   12.74700831968328
N         2.44951636436023    1.30290672097577   15.48966585313962
C         3.05144925951481    1.63140834099709   16.80965935390004
C         1.89639725399861    1.77343215030392   17.82111941531515
C         0.67013783479467    1.53636645213521   16.99031103818484
C        -0.66363796066437    1.57941817042377   17.33737946868997
C        -1.62047233377448    1.35412714701825   16.35568454490106
C        -1.24983358765424    1.09558095130120   15.04553737882489
C         0.08905311083696    1.04581774625938   14.68004866457419
C         1.03490663276243    1.27244408574249   15.67130879062151
C         2.85415324314895    1.58114611812703   11.03682794790125
C         2.14263230355624    0.44139201833722   10.67302224890258
C         1.71378434751327    0.28677629929277    9.36717469871372
C         1.97225716389494    1.27178015927987    8.42768790152259
C         2.65212871054360    2.42280387225399    8.79543804608777
C         3.08702651312031    2.58419575413365   10.09677298419030
C         5.03292615965070    2.54915968812476   12.64309097291001
C         5.94871801466838    2.10535260842825   11.69468543646594
C         7.23929649158201    2.60245968149641   11.70097015019931
C         7.62098848581829    3.53903684019252   12.64842738763027
C         6.70990701546730    3.98802465683960   13.59135280387824
C         5.41761936566833    3.49509936497846   13.59183367241131
C         3.53473679054133    0.29795305731246   13.54392679211396
C         4.14870357457527   -0.76422194054249   12.89204662600514
C         4.21491470492816   -1.99719935708789   13.50871324352184
C         3.62965429682665   -2.16906603630913   14.74962738670006
C         3.01051498500406   -1.12324157841318   15.42711489331549
C         3.00432884586302    0.14449241364595   14.82967123805501
C         2.36769878767219   -1.42180426899091   16.74908392986964
H         3.58815562878062    2.58300793921185   16.71207589723883
H         3.77068171388023    0.86064717774271   17.09458373694741
H         1.87184547218764    2.78267258925644   18.23122917807984
H         1.97060914570180    1.06243759374642   18.64712626083929
H        -0.95701940011940    1.79545755253787   18.35313956747904
H        -2.66740357581595    1.39535089190894   16.61403623614526
H        -2.00840670275773    0.93683857452154   14.29417653277474
H         0.38574724343426    0.83577169415234   13.65373227585056
H         1.92977938858361   -0.32321789269884   11.40874681792523
H         1.16952239543437   -0.60223126758310    9.08350058903619
H         1.63225637291076    1.14710935266579    7.41038263878169
H         2.83557911089311    3.19861566071726    8.06731788758888
H         3.59521220989140    3.48813278245449   10.40417331337129
H         5.64600399153378    1.38913286755456   10.94345834161860
H         7.94891469523302    2.26212483711300   10.96111303743573
H         8.62881959466553    3.92670674198421   12.64527629703730
H         7.00533954427198    4.72820308511945   14.31970107535313
H         4.68061098299189    3.86813936865135   14.31692587474420
H         4.56164309708744   -0.61666992475096   11.90546925591462
H         4.69748292990050   -2.82827768993068   13.01742285817369
H         3.64399937963640   -3.14557388114820   15.21149825190487
H         3.04864980436299   -1.20951808953664   17.57342316249022
H         2.11322698501924   -2.47828919806819   16.79981261503582
H         1.46012476174065   -0.84247487033459   16.89200003176870

