80
CSD_code = JESGEU | q = 0 | S = 0 | Stoichiometry = C37H38ClN2PPd | MND = 4
C         2.30167799604929   -2.53646013262033    2.92908251325311
H         3.28825898020329   -2.73596115902434    3.37840383107818
C         2.41439755260263   -2.76450938372181    1.43437400814901
C         2.96486910429754   -1.71748963138448    0.68166657889175
C         3.00968467073812   -1.85424757235930   -0.70025732271558
H         3.39641056430854   -1.04886199702969   -1.31744948038830
C         2.58155247470763   -3.01761411097334   -1.32130887950356
H         2.63451495248000   -3.10298412151304   -2.39748237371087
C         2.08920802108934   -4.06329424438091   -0.56345940822909
H         1.76204445820115   -4.97647914278688   -1.03919643237222
C         1.99786157527862   -3.93247743998899    0.81193333437813
H         1.59300836842572   -4.74918572294386    1.39094482383597
C         2.32394266030946   -0.67513095874541    4.51123636185858
H         1.59100270395383   -1.08835937033890    5.21575535974207
H         2.27851514859928    0.41503118563567    4.56861021195329
H         3.32296475517177   -1.00327441680584    4.80725706585058
C         0.68403090840891   -0.69837564582176    2.77637725622959
H        -0.05019081293269   -1.09045742221742    3.49187567767979
H         0.44185233790771   -1.07046009133061    1.77587126420924
H         0.61729814804519    0.39485315366740    2.78573375154562
C         1.28113366886869   -3.44724123607216    3.61724948343246
H         1.12031976561879   -3.14195363782844    4.64861257799870
H         1.65906260575424   -4.46617327840425    3.63359056051327
H         0.32830257833307   -3.44081694062422    3.09335592519296
C         5.17797681256704    2.64246991977441    0.79471799812825
C         6.15160596749084    2.42097073613155    1.77181224175652
C         6.83007004672476    3.48472257482936    2.35502459906177
C         6.49359536826237    4.76870731044191    1.93266655777204
H         7.00398093241643    5.61245695574436    2.37543356077885
C         5.51801252783436    4.98925501670684    0.97728698964591
H         5.27489694357069    6.00040244721152    0.68514020826526
C         4.84604103794893    3.92559050092415    0.39740740149225
H         4.07242081355803    4.09040146148201   -0.33877842869155
C         7.86751058851939    3.28145906181780    3.41764555468476
H         7.39195551136358    3.25778915459763    4.39901111031861
H         8.58209677817679    4.10170807356983    3.41270913651975
H         8.40458981578053    2.34640339578888    3.27234205951456
C         7.51050306887186    0.36387379525441    1.78381969886833
C         8.56846183335149    0.74146320505356    0.97844928930481
H         8.59443337376985    1.71642111884386    0.51548607713007
C         9.59601416664502   -0.17191616773601    0.78494005398609
H        10.43370725893365    0.10377927768296    0.16124862232545
C         9.56806152582286   -1.42009875924072    1.37955704686605
H        10.38034406864448   -2.11157951691003    1.21372748228171
C         8.50458415929074   -1.79125731208769    2.19883529456231
H         8.48799417097139   -2.76411180213659    2.66822633818218
C         7.48716128566799   -0.89300123816072    2.40445231215649
C         6.21904351451489   -0.98898211764381    3.20867804593927
H         6.34538042329652   -1.48975693465530    4.16767973007536
H         5.44139550761581   -1.50976443921974    2.61883309959710
C         5.84522131273160    0.49270138213265    3.34384728227925
H         4.76901489001191    0.67767550181685    3.44796540295078
H         6.37244864691251    0.94692844065733    4.19572464417998
C         5.82814611701498    0.38463087052596   -0.72871539308002
C         6.64170299797892    1.20251807690734   -1.50562960827911
H         6.47100883972417    2.27086704626081   -1.52739864371719
C         7.69023845803532    0.65641975077712   -2.22377734974032
H         8.31402700532077    1.29543541110506   -2.83251082830249
C         7.95107736756477   -0.70156149486325   -2.15136855040692
H         8.77300098624593   -1.12342641779545   -2.71061325443985
C         7.17111617959756   -1.51209264997195   -1.34395080510909
H         7.38960899274612   -2.56639943996369   -1.26259227963894
C         6.11626222424628   -0.97117746610281   -0.63347349513797
H         5.50702117588861   -1.59518752782490    0.00720436502297
C         3.22155811191458    1.61500413531382   -1.02988872628915
C         1.88094636667502    1.54382639112145   -0.65172252249528
H         1.62203885205004    1.18018791112313    0.34899297760786
C         0.88291341867434    1.93376815391288   -1.52554575445643
H        -0.15245003452301    1.88189342676196   -1.22145442783732
C         1.21088221091837    2.38656603252466   -2.79313693666874
H         0.43321874160968    2.68899644523676   -3.47907431326167
C         2.53851200126044    2.44251536494650   -3.18296528370517
H         2.79619218173254    2.78491778501032   -4.17498185291862
C         3.54093367553161    2.05927063984526   -2.30890587631868
H         4.57063032069162    2.09345764444993   -2.63199424258475
Cl        2.84572290905961    2.09527206748598    2.80860266881712
N         2.04998758687437   -1.08735347601154    3.13660700758444
N         6.33900094575671    1.04898446290759    2.07827548014547
P         4.44069625874137    1.07922016131471    0.22760535626610
Pd        3.22036057104837   -0.03064102993245    1.72464619015463

