33
CSD_code = JESJOG | q = 1 | S = 0 | Stoichiometry = C15H11Cl2N4Os(1+) | MND = 6
Os        0.39778269184489    1.36344801991343    3.15499828789116
Cl        1.36899414895695    1.09177116390593    1.05409498515169
Cl       -0.51811456993070    2.44530695948647    5.00392938600396
N         0.29043284285958   -0.21777928363494    3.64485561543705
N        -1.41271155441317    1.68906627165988    2.18005787713090
N         0.53411030947557    3.35463137682573    2.53523451260378
N         2.26853202223264    1.95693038742391    3.84993847680934
C        -1.59218354057159    2.92660276396563    1.66607862865150
C        -2.36986928755920    0.77328573341129    2.04503577362630
C        -3.56167991598066    1.04055934152346    1.39027613871711
C        -3.76516108437391    2.30377224535144    0.85710399305768
C        -2.76775577898448    3.25448168175904    0.99762352505928
C        -0.48384321001908    3.87707645630850    1.86120095094396
C         1.63885755556147    4.03193482301880    2.82538907537887
C         1.76990092828564    5.35845320002652    2.41637752912314
C         0.72139636051356    5.93089196281029    1.70926113761487
C        -0.42226199975628    5.19863483641451    1.42103877326088
C         2.62063800962077    3.23401650926615    3.58001075587617
C         3.10301460528094    1.17145377482892    4.52809462789656
C         4.33599359555210    1.61651476232991    4.97755702153498
C         4.71466346167881    2.92337026122383    4.71229019880321
C         3.84599151889568    3.73806580614669    4.00522762205794
H        -2.17282290069794   -0.20102776004466    2.47589240000303
H        -4.30860636599564    0.26813777505072    1.30595792276134
H        -4.68101743066594    2.54696453575796    0.34133499373445
H        -2.89931341247607    4.24443896176228    0.59288543226673
H         2.65406176848543    5.93298745385736    2.63514131142157
H         0.79597521132540    6.95559812193100    1.37944743581763
H        -1.23114363684114    5.64972057208687    0.87157943127471
H         2.76979559559941    0.15767021085482    4.71513812558791
H         4.97878524835796    0.94567298909305    5.52384778533517
H         5.66699935398733    3.30309840242719    5.04821150109101
H         4.11485945975196    4.75804968325806    3.78498876807666

