20
CSD_code = JESPIG | q = 1 | S = 0 | Stoichiometry = C8H9HgN2(1+) | MND = 2
Hg       -1.31330912799974    1.29996823292507    2.92857359959154
N         0.18835005246035    4.09867790610600    5.03916615045337
N         0.00276746188055    1.69220638343931    5.05448565774673
C         0.78783932441416    5.02914699912465    5.85689723192327
C         1.40387163030848    4.40909626413504    6.89680319395685
C         1.53448713634665    1.86311345886843    7.43073158414723
C         1.10188234982098    0.65093675850348    6.91715319115601
C         0.35312230975455    0.60156675393420    5.74983374641024
C        -2.43708728519438    0.70598308399303    1.09432702334448
C         0.40994854565589    2.86596523109313    5.54295561066077
C         1.18533384710345    3.01250517654675    6.73531532796464
H        -0.33438558110727    4.31870018852763    4.20382910964466
H         0.72460442734915    6.07438719649139    5.62701369888900
H         1.95165080479925    4.87261530985170    7.69105358645125
H         2.11966169132393    1.91350925826998    8.33529062029678
H         1.34182710932272   -0.27328519261826    7.41677916320486
H         0.02057373388095   -0.35192040321231    5.35725722947711
H        -3.50357254814075    0.76237362904538    1.31458723094867
H        -2.14697710104715   -0.31560013528791    0.84585271837611
H        -2.16908878093226    1.39165390026379    0.28969432535688

