69
CSD_code = JESQII | q = 0 | S = 0 | Stoichiometry = C24H32CdN10S2 | MND = 6
Cd       -2.03064654491492   -0.00032868936839    4.49119791900427
S        -2.24727259740535   -2.43039952198378    8.10096704743071
N        -2.38380260052405    1.26688101158467    6.50128469472899
N        -3.66955360741228    1.38518969391984    6.87657735899559
N        -5.08907284790469   -0.00519075086463    5.58856494822969
N        -4.18420264564692   -0.83505827520499    5.04869339876098
N        -1.21604167963492   -1.51427394500792    5.70650564037271
C        -0.17906325926523    1.14809590257876    7.60235249673288
H         0.12517430620444    0.32818989213343    8.25023525977688
H         0.27334277796021    2.06606782830916    7.97665016782928
H         0.17238819855841    0.95229370196775    6.59237453904363
C        -1.65984578918993    1.26094748438996    7.60846589670058
C        -2.50123351483791    1.38380720218811    8.72680483891455
H        -2.20851252484275    1.40432971229655    9.75629535743353
C        -3.78126219765852    1.44631407273054    8.22734744058678
C        -5.07436635511513    1.54264795385269    8.94944281232704
H        -5.72846935138793    2.29084694757172    8.50280115974886
H        -4.88795678206122    1.81682479500660    9.98405070346885
H        -5.58170638024072    0.57747806313734    8.94269954038610
C        -4.70200672102731    1.35302895537598    5.87615113185059
H        -5.57576715715289    1.91434162940702    6.21430384090579
H        -4.27800668645745    1.79072166535678    4.95966221775248
C        -7.45853728909212    0.01254080561676    6.40784002769937
H        -7.28538359028857    0.41699244106705    7.40371845077651
H        -8.26510372939464   -0.71247436924584    6.46996275256230
H        -7.77516894867157    0.82611417944390    5.75502535974114
C        -6.24611436747284   -0.65381775702007    5.86582092023773
C        -6.05622361803183   -1.96317931630164    5.48338931335008
H        -6.76279976520338   -2.76457078862899    5.55382623726476
C        -4.74342782581383   -2.03147377154147    4.98560925616718
C        -4.02169392207757   -3.22348806708987    4.47427746257778
H        -3.14507071973575   -2.91081851652506    3.91056551950129
H        -4.67605260399669   -3.82785534122556    3.84935305221415
H        -3.69132314696677   -3.83220076120912    5.31584620401765
C        -1.67117101613741   -1.89128015116868    6.72704933479693
S        -1.81137015242995    2.43064959360976    0.88225992862067
N        -1.67821622693274   -1.26758437680477    2.48083725296576
N        -0.39248833294398   -1.38493754859690    2.10517094305820
N         1.02765004438300    0.00430301667394    3.39374427392493
N         0.12296710557095    0.83424354812757    3.93379089348034
N        -2.84448053793774    1.51384541876376    3.27572557144334
C        -3.88319154977027   -1.14848410511233    1.38023566538293
H        -4.18796661506896   -0.32856748249934    0.73262669667661
H        -4.33523593544210   -2.06658436142696    1.00580710905952
H        -4.23452442666678   -0.95315263042813    2.39034583842722
C        -2.40235015409039   -1.26063724899303    1.37376773980651
C        -1.56110615518835   -1.38180121249562    0.25513838016974
H        -1.85399174099305   -1.40115528118658   -0.77432733247106
C        -0.28097128096520   -1.44435829764045    0.75431245153013
C         1.01209628391405   -1.53914113632408    0.03195827727658
H         1.66640450907295   -2.28795016030633    0.47728542035489
H         0.82568860225460   -1.81158706293494   -1.00310512857883
H         1.51918200441634   -0.57385097928815    0.04034878142686
C         0.64018584487693   -1.35364152276487    3.10538728952297
H         1.51375709427184   -1.91492262501603    2.76668642573530
H         0.21627484109674   -1.79184354947955    4.02167184228843
C         3.39734216260803   -0.01397706634730    2.57514611646646
H         3.22429812467886   -0.41796432878062    1.57905923107497
H         4.20418259970239    0.71077540058764    2.51352165859334
H         3.71351484614098   -0.82792572841595    3.22771500980874
C         2.18502692346417    0.65259872102322    3.11713948124351
C         1.99554441237518    1.96185074444392    3.50015311048760
H         2.70244867437537    2.76300355246256    3.43030032528531
C         0.68263791017746    2.03041425531896    3.99759804197172
C        -0.03874747579767    3.22249789103809    4.50927288800752
H        -0.91627978425960    2.90996096276432    5.07164532709085
H         0.61535740061092    3.82569449471079    5.13560520158155
H        -0.36760272514146    3.83234612239537    3.66792906286118
C        -2.38888178751476    1.89063906738456    2.25523392353096

