37
CSD_code = JESTAC | q = 0 | S = 0 | Stoichiometry = C12H21IN2Pd | MND = 4
I         4.24686290888837   10.93209801283485    4.82802538441015
Pd        5.40581143020753    9.80385479182696    2.87069748560943
N         6.46219261514768    8.91789320193644    1.13692544899519
N         4.55835768482960   11.15417124938225    1.23095452769493
C         5.73360105997213    9.36907409361741   -0.05323587927104
C         5.30973651902318   10.83993146933981    0.01576191699253
C         6.61289214509944    7.46690673195894    1.08177094105913
C         7.78458401420102    9.53833361813621    1.21441982402659
C         4.50043599781870   12.59994902335375    1.42086521230705
C         3.19860390914885   10.61419659263650    1.16838985298425
C         6.16743415546398    8.49181955737225    4.12822430553046
C         7.40464822563951    8.73838924070181    4.70260230577417
C         8.02518317700971    7.74679670583822    5.44774755221263
C         7.40205894850475    6.52303663072198    5.62679662815408
C         6.15259705084101    6.29114926538234    5.07612643434557
C         5.52839844418862    7.27868336047926    4.32866997996674
H         4.84378357825874    8.74044163406011   -0.16172101846169
H         6.35295493966215    9.22595250422839   -0.95607008060432
H         4.71315975031303   11.07053955550614   -0.88478358661050
H         6.20051420198751   11.47564453700278   -0.01228118049055
H         7.15957134155047    7.11703520836123    1.95731226287771
H         5.63201895706635    6.98921236844502    1.07893936601159
H         7.15775578336266    7.16138313153549    0.17689123673336
H         7.69687673399082   10.61334609062564    1.39646012517922
H         8.34053320431896    9.09593796321217    2.04288382608672
H         8.35332758198908    9.37875501565561    0.28566322845415
H         5.50919711032428   13.00223335366418    1.53187034770037
H         4.01030823130044   13.09678394639141    0.57146150746849
H         3.94424320438467   12.82658000123249    2.33023190475659
H         3.21717895909314    9.51694681637853    1.17897106079162
H         2.63742267597700   10.95044698354360    2.04292804919276
H         2.67333426022304   10.95293782070778    0.26212844688737
H         7.87761674739857    9.71371337189863    4.58942731739851
H         8.99118751888782    7.93446528377239    5.89570427583409
H         7.88469966480926    5.75309582290318    6.21134442715073
H         5.65747397463877    5.34346888680101    5.23581084443818
H         4.53434329450222    7.10499615851458    3.91838571842638

