37
CSD_code = JESWIN | q = 0 | S = 0 | Stoichiometry = C7H16B9MnO3S | MND = 8
Mn       -1.23212318717907   -0.12409582257001   11.17764038167823
S         0.73203231144657   -2.19469178541542    9.15880183298819
C         1.36793634416983   -2.40269375274412    7.46031264806982
C        -0.83015173138807   -3.09443301222446    8.91762416859665
C        -0.62815289500550   -1.57132191391262   11.99804416010568
O        -0.26687678661268   -2.51603208065293   12.56643829822316
C        -2.82652849412947   -0.78976389454885   10.77411411658747
O        -3.86771732084601   -1.24019471967638   10.55449685953672
C        -1.82209231081280    0.44152943034992   12.75610032872857
O        -2.20873334223368    0.77627148144467   13.78981867950814
C         0.79158000799668    0.59562328840206   10.45668035939977
C        -0.12775374984003    1.79453737753117   10.79269225552047
B         0.12695371985136   -0.32569751993115    9.24540430600174
B         1.49043665352570    0.76122595532688    8.87341329721960
B         1.30595113754707    2.16687650312730    9.90316294771971
B        -1.54013587140963    1.77405449253028    9.89117199598147
B        -1.39785615813163    0.37553848439404    8.77343042331586
B         0.09228244148444    0.67679563788730    7.78142705507101
B         0.79144662459660    2.25463923700201    8.21667813774859
B        -0.22414982736772    2.93131766419183    9.50416975654756
B        -0.99299904636738    2.02100643673836    8.19973241170375
H         1.47510120208951    0.22204663804523   11.22307537506470
H        -0.06181546967197    2.21951744838222   11.79652774392351
H         2.56215845680038    0.29213694271324    8.71088270755986
H         2.19022597898281    2.67466524906167   10.48806973104971
H        -2.51282904996080    2.30546273274157   10.30607355505546
H        -2.28754084718729   -0.18730724913673    8.23157975025025
H         0.16517567888086    0.21832669918347    6.69609914364575
H         1.35725658061831    2.92528402706416    7.43386675167863
H        -0.39032472114191    4.06229688775951    9.77837487055906
H        -1.68707834438586    2.53907437129184    7.40327828133126
H         2.27950219642801   -1.82216715984369    7.37032581910337
H         0.63402366893406   -2.04670791066861    6.74576924579019
H         1.58242936922450   -3.45525080928945    7.30424628201324
H        -1.37621448458478   -3.06624001564826    9.85776479007768
H        -1.41413985501315   -2.60790545323436    8.14258807602543
H        -0.60297887930731   -4.12172388567205    8.64912345661897

