52
CSD_code = JETFET | q = 0 | S = 0 | Stoichiometry = C16H26N5O4Rh | MND = 6
Rh        1.92233061306681    3.90142154117941    1.08428721582194
O         0.70258861700245    4.95290367330305    3.53974941214131
O         0.87136251486441    1.82485265024055   -0.54020262962904
O         3.19687827120329    2.79367845837868   -1.31930830160161
O         3.08772665572932    5.78868210274699    2.85706849605424
N         0.57052403430877    4.09090091250338    2.48861487090289
N         0.62665131266489    2.56608812953270    0.48434151110658
N         3.29153629774109    3.70031741533124   -0.30029210861634
N         3.25280812261922    5.18023539442617    1.73250774366026
N         2.97671816947623    2.27529100678942    2.33824637621341
C        -1.58643283000920    3.30234639139996    3.36389056912298
C        -0.45968859660935    3.31631013350832    2.38393363345005
C        -0.42961205479597    2.43160927542254    1.23995281922051
C        -1.50539903815067    1.42710698692540    0.96656515609379
C         5.52109835583688    4.37643079891222   -1.08314795634744
C         4.35275907874921    4.42519523522791   -0.15395370725447
C         4.33911037870412    5.27563554543213    1.01454493177485
C         5.48831644382651    6.16007256155579    1.38604412256639
C         0.86061968207618    5.32830372210375   -0.03405643567723
C         0.93768029737662    5.08736397836718   -1.53942053713812
C         1.25462215932064    6.76821382570289    0.28166883559983
C         3.11741715668665    1.04163062663339    1.86256996128675
C         3.68867627770181    0.01791802150957    2.60012460926769
C         4.13110503039678    0.28728045046442    3.88535367771923
C         3.98498270855068    1.57388953474195    4.37852734755507
C         3.40275184991614    2.53631988274084    3.57039681814372
H        -1.40460836124410    4.04399636405251    4.13731608033758
H        -2.52425673720039    3.53004951402027    2.86021477216115
H        -1.67926668406310    2.31892891188433    3.82200394324368
H        -1.25170819349395    0.89839458715565    0.04994715725434
H        -1.58757757413818    0.70770698551224    1.78074432661842
H        -2.47065471765018    1.91520586771305    0.84070458296368
H         5.31368082831259    3.68120451170554   -1.89247221427418
H         5.71348307183101    5.36483628792881   -1.49697003480234
H         6.41523098239250    4.05323700172497   -0.55226942193499
H         5.22296472727819    6.69893176356000    2.29339638959053
H         6.39033347158158    5.57711615105703    1.56977205813801
H         5.69897956316738    6.87762157036914    0.59428633796593
H        -0.19210907444969    5.20073898963191    0.26437259542852
H         0.65611371398199    4.06954798972905   -1.80064140673966
H         0.24431085187115    5.76033620366702   -2.04802762818956
H         1.93477040964224    5.28849341548769   -1.92695777777749
H         1.20592559326992    6.97679381241643    1.34841591999463
H         2.25879435567689    6.99196684498317   -0.07479943411434
H         0.56447546675908    7.45014754602879   -0.21961501421152
H         2.75738703579015    0.86073217743252    0.85752595733442
H         3.78213327205146   -0.96787152212263    2.17275369784651
H         4.57992734777342   -0.48788612349879    4.48879864194198
H         4.31496132129398    1.83166007470979    5.37242078196149
H         3.28149590651544    3.55222584491139    3.92517254499291
H         1.61672784663440    5.40211691839556    3.38012364642287
H         2.28355406816187    2.35257005646381   -1.17572293359025

