43
CSD_code = JETGIY | q = 0 | S = 0 | Stoichiometry = C20H14FeO8 | MND = 6
Fe        0.37025227058604   -0.09120413377835    0.37244176389926
O         0.80068279924285    1.71912325425326    0.15728675829262
O        -1.05674655515344    0.79352954034132    1.51848243931815
O        -2.52540818103331    5.15274200897500    2.57628346719780
O         1.88847045217026   -0.28781513123308    2.14776676568057
C         0.09289313254244    2.60556209243603    0.69463407392782
C        -1.03040410730372    2.08103735409527    1.49889683060817
C        -1.88622296810357    2.94622076954070    2.12719856536029
C        -1.74421136332501    4.37207674508732    2.04089075681929
C        -0.57937037820451    4.89154209248596    1.26232843815387
C         0.31904311104461    4.02852837617466    0.61200262800716
C         1.39559379413962    4.55383156831409   -0.10861321652117
C         1.58101677308865    5.92014963329851   -0.17728561219567
C         0.69550895817346    6.77529805061548    0.46552634619291
C        -0.37599258356203    6.26233567785138    1.17685997146276
H         2.72111619943645   -0.62821546841213    1.80553030026626
H         1.54736861057653   -0.92256864739339    2.78517864622729
H        -2.69660718737289    2.56346716777493    2.72873723279624
H        -1.07582498226027    6.91133335617015    1.68223685617650
H         0.84310768912895    7.84349620501579    0.41062426550707
H         2.41580600042542    6.32335959495831   -0.73083686221868
H         2.07128541935165    3.87072118949212   -0.60074606934325
O        -0.06871913634807   -1.94111953124061    0.60365124193187
O         1.61152486087386   -0.91239389112860   -0.91627241551445
O        -1.34163938081614   -0.06095002808315   -1.21669558826453
C         0.24098207847859   -2.67463296885049   -0.37318594330259
C         1.23141896023427   -2.08585608731225   -1.29426693267829
H        -2.14336940253242    0.06292419974809   -0.69408900264582
H        -1.33001154932790    0.61218895076882   -1.90420232058258
C        -0.21541340290671   -4.02560836032583   -0.57929319366684
C         1.71117676292453   -2.81782768089943   -2.34932874528512
C         0.26745545148082   -4.74030150534959   -1.68952811978604
C        -1.14852860200172   -4.61727063515349    0.27910319107578
C         1.25790240880372   -4.14607357435758   -2.63667379556942
H         2.46659596569470   -2.39714292546729   -2.99492188886404
C        -0.19153579325851   -6.03254792869952   -1.90874622267916
C        -1.58705539105476   -5.90442555457796    0.04477304016510
H        -1.51344584633781   -4.04590276100055    1.11937066803816
O         1.65252694872345   -4.79550290240104   -3.60222470461903
C        -1.10742041906624   -6.61403711510347   -1.04915281664956
H         0.19100380656033   -6.56638497555187   -2.76609907094646
H        -2.30361044187390   -6.35999354019477    0.71188895893402
H        -1.45119478183969   -7.62169248087757   -1.22953068471085

