35
CSD_code = JETHEV | q = 0 | S = 0 | Stoichiometry = C12H21BrPt | MND = 8
Pt       -0.32045425064446    2.89344585293674    1.93100944669366
Br       -1.78993948629047    2.89483806697183   -0.05713610933024
C        -1.49500123842368    1.48437154710652    2.89240250663814
C         1.59674480075810    2.89348904591800    2.95077159190227
C         1.67063305460570    1.72215326067616    2.09182226036574
C         1.58520682574227    2.16441129107105    0.76722524222661
C         1.70073641359181    1.34568567506708   -0.47764150420523
C         1.91339024501633    0.32537614628676    2.57048391921812
C         1.92780773359350    2.89368092976205    4.41034798353669
H        -2.56489580569681    1.65387719253381    2.77344746742027
H        -1.25956520623146    1.43367559948923    3.95653470187471
H        -1.24186422307198    0.53215469771041    2.41448915566748
H         0.96540902370682    1.65595228394744   -1.21934762891866
H         1.55354567872568    0.28814987906242   -0.27089412893631
H         2.69312570514691    1.47777012451395   -0.91354918261398
H         2.98428984769978    0.17560097947320    2.72338170822803
H         1.56939292478560   -0.40836780922786    1.84482764374772
H         1.40961560322227    0.13562487888487    3.51627198706615
H         3.01247747976964    2.89361392884012    4.53812419191131
H         1.52889016517091    2.01103442749796    4.90577159001987
C        -1.49474889930701    4.30139539059648    2.89437677404333
C         1.67072563742146    4.06459372256928    2.09156155645823
C         1.58531905659678    3.62199124371407    0.76707048248117
H         1.52904375149412    3.77655754540024    4.90548316854470
H        -2.56465293851392    4.13200433927756    2.77544221814110
H        -1.25911393938955    4.35074036712018    3.95851898773440
H        -1.24181279375637    5.25424826619267    2.41763414998759
C         1.91360336675729    5.46149914603011    2.56981825161790
C         1.70093293042192    4.44040272360724   -0.47797283882268
H         2.98453109079566    5.61130559118352    2.72253234892858
H         1.56952126759151    6.19504748133553    1.84399933607758
H         1.40994414466826    5.65154123977875    3.51560932991392
H         0.96556627336555    4.13007002256568   -1.21961154540206
H         1.55388288009992    5.49800560005546   -0.27148118178261
H         2.69331288057786    4.30805932205161   -0.91382388043355

