29
CSD_code = JETHEY | q = 0 | S = 0 | Stoichiometry = C14H10NO3Re | MND = 8
Re        2.03856657989582    0.76103950160092    1.83951399869003
O         1.95372853136576    3.48256486184887    0.38305583227481
O         3.33538718803127   -0.72609795868794   -0.53613249171585
O         4.71229250491964    1.31291453677250    3.28328297033856
N         3.67263561055409   -0.60735970753041    8.96838704893825
H         3.19088346664358   -0.25708478632103    9.77924490876333
H         4.23568948863887   -1.42722008500284    9.12033690423422
C         1.13989945467737   -0.04928030954033    3.95670354398712
C         0.38325088438905    1.07059218261995    3.49828726761419
H         0.16515759631775    1.95788868863564    4.07374805038912
C        -0.25619003216946    0.71802164327634    2.27720135536470
H        -1.02505063307683    1.29388289469719    1.78158281569339
C         0.14395223380375   -0.59711154497755    1.93900677978672
H        -0.27528626606481   -1.20389708951696    1.14898100665621
C         1.03440322406839   -1.05685517872711    2.94998622766735
H         1.36719465828278   -2.07870764913945    3.05703119277670
C         1.79716592587006   -0.19311683781810    5.25234023665165
C         2.84977692427604   -1.09384436159054    5.42976300670922
H         3.21470062801801   -1.66526845220157    4.58779275593567
C         3.45293445527250   -1.24855335178406    6.65676976898913
H         4.27053971161305   -1.94554941111516    6.77316757950964
C         3.02669133493385   -0.50426388683129    7.75936608083541
C         1.97569581520005    0.39798140582020    7.58553556190004
H         1.63312861422537    0.98027561082426    8.42925771120168
C         1.37675275275871    0.55171993154589    6.35486292755702
H         0.55700981316381    1.24828712875783    6.25383226060166
C         2.03661417295884    2.46780449432910    0.90923925039810
C         2.88881568052901   -0.13619961007609    0.33959310875194
C         3.74975968090356    1.13133734013112    2.69016233949953

