39
CSD_code = JETKOI | q = 0 | S = 0 | Stoichiometry = C14H16N4NiO4 | MND = 6
Ni        4.11686405297085    3.54071364762757    1.53861639115118
O         3.40382082218336    5.16451307417487    2.20656019451895
O         3.37772945490833    6.87105087403451    3.59521757565649
O         2.80229447213111    2.54430510311588    2.47044195382561
O         0.90957236086091    1.42951733324611    2.59821914761990
N         5.12933217156258    3.71989512656957    3.71238286451368
N         2.22413969222092    3.62801471777584    0.05803451890737
N         4.90320899095730    1.96582625027326    0.81072116905294
N         5.48344851513265    4.45069053217509    0.57506853938562
C         3.78995454253813    5.77727064988601    3.25475934900851
C         4.91599341617962    5.11232809661314    4.10187270447888
C         1.68287930204001    2.15646309534771    2.00169618806046
C         1.32897982644135    2.57992749380938    0.54465840289846
C         4.54288996603884    0.70758598194209    1.03169555544098
C         5.21702496926684   -0.37271816527139    0.48607876621977
C         6.31894321598243   -0.13593200087870   -0.32129088379321
C         6.70666371757292    1.17274588367546   -0.54420247568134
C         5.97851991012354    2.20870011917615    0.03665061432156
C         6.29383101536907    3.62822131626675   -0.11873023658318
C         7.32898012598965    4.12231221092046   -0.90939625770715
C         7.53075356546602    5.48838292876332   -0.98551986167210
C         6.68246285772088    6.32449603181381   -0.27594592236012
C         5.67246881610358    5.76162451687372    0.48709463940986
H         4.65099010111968    5.23799851673575    5.15872486153978
H         5.82721770759008    5.68785250463790    3.90917674841859
H         4.38748927266532    3.15119544261687    4.12323193086012
H         6.01620401623577    3.38013057313680    4.07229913021586
H         0.27004378427220    2.86498773968821    0.53248219405745
H         1.44696323540447    1.68423159493463   -0.07369511152448
H         1.92820643610974    4.51921615309438    0.45890029156780
H         2.16490710328860    3.70729243018225   -0.95281194413248
H         3.68612108795754    0.55489000923668    1.67305929971687
H         4.88122155484965   -1.37576987791357    0.69306926985578
H         6.86786081559943   -0.95257753784666   -0.76472230767476
H         7.56560057074643    1.38537008525390   -1.15959258512055
H         7.96679727695241    3.44954114422018   -1.45923994598965
H         8.33003396564438    5.89096353658309   -1.58878365102628
H         6.79701023750925    7.39571440856732   -0.30947863189948
H         4.98877705429700    6.38762845894343    1.04339751446318

