65
CSD_code = JETLUQ | q = 0 | S = 0 | Stoichiometry = C29H27O7PW | MND = 6
W         1.83213733921542    2.74816025253659    2.05251030538917
C         0.47564004198301    1.94280443478634    0.85514032415181
O        -0.32278160593990    1.49304215274013    0.17065788717429
C         0.59571850610904    2.35323433760964    3.56348411411063
O        -0.21927869386070    2.18184454436309    4.34905688117464
C         2.86174150169673    3.28482299614502    0.41998407723814
O         3.22861128854029    3.69541002966253   -0.57879030876887
C         2.68047540340323    0.95042490210999    2.28572325912449
O         3.04266126990577   -0.11590511608203    2.47503878199644
C         0.95093227550586    4.53103633299074    1.91268200108609
O         0.44685343149698    5.55470756081906    1.87100768645242
P         3.47061387735068    3.84116677176230    3.53079401687052
C         3.01056387280196    4.02487980656763    5.36985696093454
H         1.90087765784038    4.07002891735582    5.32712601214944
O         3.51734927426640    5.29952215016951    5.67700527942273
C         3.19089630359119    6.15711037869080    4.63928994771418
H         2.12619016032012    6.46417032567921    4.71056498742136
O         3.31579911281967    5.44903800858246    3.39681280399104
C         5.32910237654781    3.57440509733382    3.39301100256268
C         5.56618255115493    4.02631819677274    1.96838172715462
C         5.75699995133454    2.93629013501397    1.19124907318447
C         5.72513725625497    1.74034433871723    2.01658565496070
C         5.52093186878667    2.08475352912435    3.30704318208507
C         6.15263616188156    4.29473288854447    4.44839688630986
H         5.91694550018514    5.35699311825011    4.47356976231073
H         7.20976563861759    4.18036300403336    4.21127014520601
H         5.97057373767840    3.88009112153146    5.43657191755039
C         5.61023441591975    5.45394806367294    1.53735919706284
H         6.35403495589295    5.58458158511711    0.75328746411098
H         5.86388003633499    6.11051464274820    2.36572271313082
H         4.64339402037345    5.77137736833288    1.14307593352566
C         6.08175853837180    2.89092771497569   -0.26374835547907
H         5.90905784097715    3.85241437745068   -0.73771865384281
H         5.47588119604379    2.14053512960208   -0.76826305815156
H         7.12887473573857    2.61675791874060   -0.39915361841317
C         5.96832085003587    0.37610633260475    1.46717984036596
H         5.82873398370583   -0.38230690391422    2.23151705377242
H         6.98512107132366    0.30328414112581    1.08073574051511
H         5.28482514418714    0.17063491458748    0.64429641340598
C         5.56968739777791    1.16457558929637    4.48032161459375
H         4.72394532796821    0.47748683563639    4.48104661303390
H         5.56162483957893    1.71173296701496    5.41711650994365
H         6.48066692711531    0.56701781005230    4.44148169594720
C         3.41555611458060    2.97414766634287    6.34583171806583
C         4.27275982690207    3.25187858321573    7.40256887021377
H         4.66242205212125    4.25143956344539    7.51800687514291
C         4.60889218747148    2.25632319067749    8.30439459505259
H         5.27686999967658    2.48044913697702    9.12289923973848
C         4.08786903458831    0.98212811536949    8.16253664131411
H         4.34901187478101    0.20848357371152    8.86868492837472
C         3.22490994362786    0.70366791696074    7.11448265037817
H         2.81169095192598   -0.28730688929082    7.00197723115917
C         2.88889406813113    1.69364222288507    6.21076264576609
H         2.22269853065073    1.47797042005425    5.38674030941422
C         4.07710476174982    7.37695380775273    4.62327139084161
C         4.07132815287756    8.19544579368095    3.50105297114954
H         3.42997244888020    7.94714383439581    2.66929282331081
C         4.89064290250035    9.30853738114632    3.45442965538559
H         4.88696905463491    9.94040658754959    2.57910650115989
C         5.71203408389447    9.61246333599366    4.52787730152628
H         6.34953311051207   10.48315525704006    4.49082021385600
C         5.71372409295124    8.79949208469736    5.64822068309055
H         6.35159359855910    9.03432889028957    6.48715806247427
C         4.89989187438298    7.68064721199031    5.69799404925356
H         4.89521399380956    7.03942361212736    6.56510917073013

