68
CSD_code = JETNEC | q = 0 | S = 0 | Stoichiometry = C27H37ClN2Ti | MND = 8
Ti        6.06137319505962    1.12529830884809    7.60716525955556
Cl        6.93413726573771    2.60071678991989    6.16115214831602
N         6.09707218149865    1.94021160369709    9.09567225006156
C         6.39910882287864    2.50592919920120   10.26471225385614
C         7.40266634901329    3.51886987239614   10.35402540735083
C         7.71200825681011    4.07336862285424   11.57814573148082
C         7.05191685846766    3.68832436762572   12.73489314529269
C         6.06631205266288    2.72108299753506   12.66469396892523
C         5.73713299433040    2.12090422955150   11.46507420096641
C         8.11007779368945    3.91733858417600    9.08252625681186
C         8.81333991544125    5.27056878153373    9.14595150704741
C         9.10893135442187    2.81560899167485    8.70429817934901
C         4.64871912732917    1.07738685475644   11.39550157909253
C         3.27625264671239    1.74991375736543   11.50480354980114
C         4.79859125204207   -0.00656754654059   12.46387355657650
C         5.72888902656078   -1.10863755019496    8.07951174986190
C         5.37274997735633   -0.95447309177619    6.70953723310136
C         6.52297332215269   -0.53648257211639    6.00296535482939
C         7.59771821099901   -0.42591297203125    6.92128484813598
C         7.11032330305601   -0.77781264030659    8.21764425420720
C         4.90473132272043   -1.82296740473192    9.11355335488356
C         4.06488094837994   -1.37961115407606    6.10387349586279
C         6.65527083577160   -0.35083995719036    4.52063215499570
C         9.01901457811741   -0.15479716374505    6.51606442376519
C         7.91571961520843   -0.98049820906076    9.47374765667761
N         4.12543205411104    1.57170297675749    7.10330143346023
C         3.10289288158525    1.30595602154495    7.92223643249455
C         1.78466431666398    1.56523088023462    7.59437728621539
C         1.49421550235179    2.12295673466302    6.35650814130804
C         2.55157002058592    2.38869459283204    5.49943471749484
C         3.84283709990156    2.09895408146144    5.90694151718557
H         8.47852621638188    4.82999763380335   11.64568669847960
H         7.30360823194377    4.14320015639956   13.68170751709135
H         5.54748546484315    2.43020359955260   13.56700258443570
H         7.34329318604727    3.96512167327295    8.29615253516551
H         9.15958362229216    5.54416236204348    8.15140943881918
H         9.67868383844842    5.23460077540194    9.80472759584881
H         8.13360655242477    6.04379151942762    9.49698078785883
H         9.59399545208494    3.05590696775889    7.75967686981824
H         9.86937874879227    2.71726701136295    9.47835559109824
H         8.57183081023643    1.86556665483930    8.59868181819230
H         4.74300083476531    0.60652791809766   10.40627652877842
H         2.47491048991135    1.02013629823756   11.39186998973471
H         3.16990469762650    2.22577568947175   12.47731812449049
H         3.17046769330998    2.51659895337870   10.73880442344631
H         4.08007797037355   -0.80698556857224   12.29271234686353
H         4.61967739763162    0.39607389599085   13.45756942690350
H         5.80163938600129   -0.42769058285631   12.44317306331269
H         4.94133517902412   -2.90061768672600    8.92688069092148
H         5.29414786438008   -1.64437196306575   10.11274578586452
H         3.85583070755121   -1.52416569520689    9.08609483332033
H         4.12582315113026   -2.42235792396673    5.78013039524088
H         3.24820400109890   -1.30523692755193    6.82373607629656
H         3.80538484249870   -0.77764479825244    5.23110665828029
H         7.29880936997431   -1.12823204887393    4.10124197735353
H         7.10626208843160    0.61533735800649    4.28754967086823
H         5.68724317754034   -0.41200491308847    4.02539587721057
H         9.38308994540324   -0.96905380962670    5.88349060194374
H         9.67621647192872   -0.07671064583065    7.38120372612267
H         9.09194116753804    0.77137851277522    5.94263044317495
H         7.90842948278764   -2.03618594814924    9.75716222244468
H         8.95153363744969   -0.67747843806795    9.32806959555114
H         7.50636546817599   -0.39760055576908   10.30207109405336
H         3.36128781888760    0.87668670082336    8.88254290742895
H         0.99945534660657    1.33627471930131    8.29797680898159
H         0.47689662705766    2.34068793722999    6.06984290738479
H         2.38168517884289    2.81649964225447    4.52372054608646
H         4.68636479237467    2.30442354165926    5.25459878731944

