62
CSD_code = JETNOM | q = 0 | S = 0 | Stoichiometry = C25H33ClN2Ti | MND = 8
Ti        3.46564392474991    2.81496443509870    3.05283711524360
Cl        5.34258867045090    3.16418894295463    4.22341110316905
N         2.45781224213957    4.12009327290806    3.42904192668509
C         1.64069388526735    5.16275242581333    3.32246760432768
C         0.28180436498015    4.91562810776586    3.00907115559883
C        -0.63071528513832    5.93152924755016    2.85037959580201
C        -0.22197732816556    7.24492257592785    3.00347880671022
C         1.10083045106482    7.51589339223416    3.32417927253228
C         2.04757206171813    6.52316922029621    3.49663633184758
C         3.48860196864422    6.84098012550786    3.86887389436503
C         3.75214915646815    8.34259815529865    4.03281428774762
C         3.81197108418951    6.15952430514752    5.20664604648536
C         4.42341427083044    6.32098025252619    2.76540356065098
C         4.61208948092364    1.32031381537494    1.68024339008283
C         3.26757203191785    0.88362892280498    1.74712335931869
C         2.44368453323349    1.91702225114392    1.21487938059175
C         3.28576264258403    2.99315350197359    0.81306884992915
C         4.63202892279019    2.61995965852534    1.11390372901303
C         5.84085551392282    0.53669391611384    2.03690221599869
C         2.79747734292828   -0.49707647251892    2.10880793101924
C         0.98249845411825    1.80136438009154    0.88844132216140
C         2.82277577210876    4.19618916974800    0.03821330892861
C         5.88529938505328    3.37534504258190    0.77307502945212
N         2.67395122410599    1.54940770030505    4.43930276475820
C         1.36089188098076    1.47273154105986    4.67133891969779
C         0.81497001647554    0.62756885424939    5.62069041411656
C         1.66163855410300   -0.17454685090303    6.37476318396535
C         3.02505052130429   -0.09486883776779    6.13457161229343
C         3.48773538730656    0.77260284407566    5.15887873487444
H        -0.02499752395641    3.88263229473796    2.89029239425753
H        -1.65940036920626    5.70289116178810    2.60654207158427
H        -0.92411121966476    8.05612141185005    2.88012277100138
H         1.38191824873753    8.55031152415619    3.44203473486275
H         4.79405199437659    8.49176676624529    4.30964202379265
H         3.13282957971286    8.76882071329449    4.81861711589637
H         3.57118481966139    8.87974424738863    3.10435974530079
H         4.85829065439902    6.31170539467708    5.46438576640247
H         3.19180371603446    6.57798411477428    5.99794674112055
H         3.62104569833681    5.08550099707731    5.14603621739646
H         5.46089019154752    6.51282650589640    3.03503519925428
H         4.20504438316178    6.82887913291620    1.82641543388199
H         4.28689569421388    5.24043953253598    2.63056771215511
H         6.44375746414125    0.35782821107108    1.14351381662947
H         6.46100885109748    1.08475471673317    2.74951818632690
H         5.58440742835868   -0.42994883993268    2.46788452376112
H         2.82703153043205   -1.14344006203294    1.22719889070647
H         3.42603446100588   -0.95409601956615    2.87506111201127
H         1.76913638543381   -0.48630089224929    2.47479930592717
H         0.85489989369174    1.31454764523157   -0.08294803865876
H         0.52273059225790    2.78642124903593    0.83272021074230
H         0.44803311348304    1.20455439866707    1.62881986657672
H         2.41848767931438    3.88328158927719   -0.92776594198592
H         3.64632074047087    4.88393272855256   -0.14560510604400
H         2.04103114096768    4.73575239920538    0.57720523394685
H         6.40222195792689    2.88735093121238   -0.05818423333878
H         6.56762167182648    3.39899917544397    1.62524073381284
H         5.66511221317510    4.40233488033467    0.48271826193901
H         0.73730185097809    2.13209905435860    4.07585811224663
H        -0.25283872709463    0.60229541975576    5.77194760078272
H         1.26893463197045   -0.84002861324596    7.12816323594953
H         3.72401937675316   -0.69640600792930    6.69446652188449
H         4.55043074538931    0.86043034285918    4.95234493250408

