50
CSD_code = JETNIG | q = 0 | S = 0 | Stoichiometry = C21H23Br2ClN2Ti | MND = 8
Ti        0.79221796669123    1.67687966813068    3.52044210665498
Cl       -0.88353804381808    2.18866879508570    4.86499506396406
N         1.09081577039697    3.20451250863746    2.79024625559975
C         0.55305429755268    4.39346338735173    2.66589632724989
C         1.18066778440456    5.59374814360994    3.08378412247422
C         0.62360342015690    6.84179339240224    2.94207976053165
C        -0.62607377349377    6.97312329378177    2.35461591957077
C        -1.31142827455596    5.83801122550248    1.94330968598250
C        -0.73543493829366    4.60128403502562    2.10281196333063
Br        2.87192162242023    5.40548835201435    3.94616463937077
Br       -1.66633518854993    3.01517705632468    1.60171989033923
N         2.22828377384378    1.92756354621992    4.94553211358444
C         3.46671006515313    2.27334079321357    4.58880695781277
C         4.47718636642810    2.49532273797923    5.50806740182257
C         4.19644554688186    2.36041185996340    6.85939279640978
C         2.91109829604229    1.99688023375802    7.23021123901145
C         1.96032210518031    1.78758278211356    6.24470414938561
C         2.02429422282940    0.14498596889461    2.33496577422290
C         1.86950577210630   -0.43877848251802    3.62350389683147
C         0.48237255423937   -0.62542019918515    3.84981120152243
C        -0.22547480827599   -0.18985754719905    2.70356728808525
C         0.73048374649251    0.29566702723881    1.75547437115827
C         3.30383249156623    0.37901618121809    1.58155956144162
C         2.97613734199667   -0.96800502752296    4.49044039333983
C        -0.15990016330309   -1.27311324104281    5.04109743488340
C        -1.70107377611395   -0.37967500333940    2.50803435090550
C         0.50937798155828    0.64714554984177    0.31073396263110
H         1.16220552447968    7.71063073152219    3.28950494826199
H        -1.06689612310186    7.94846968440170    2.23083833139165
H        -2.29496452734971    5.91676652742407    1.50633127695184
H         3.64228642358612    2.39186973861314    3.52447960578849
H         5.45785500022722    2.78638867021777    5.16848417604826
H         4.95795297745761    2.53720873688716    7.60304603792768
H         2.64260128700309    1.87934594763417    8.26835149460600
H         0.94461156232353    1.50488187301274    6.50601963069826
H         3.40514865895947   -0.36099381267598    0.78301312776515
H         4.17485950501275    0.28929471881764    2.22904668396544
H         3.30772532830911    1.36828737240580    1.11804020823060
H         3.14814558896941   -2.02327288162351    4.26298110997145
H         2.73275952134377   -0.89522265846972    5.55188935578818
H         3.91255564355206   -0.43533565757731    4.32078461470094
H        -0.55839926975274   -2.25341966636969    4.76804546597057
H         0.55440016980338   -1.41583465206131    5.85103055299452
H        -0.99201776231440   -0.66968492219835    5.40985694350589
H        -1.95330691971536   -1.43681077573483    2.61766880339971
H        -2.27379579609374    0.18015129762669    3.25084842684036
H        -2.01728104407205   -0.05080197411905    1.52032955850451
H         1.01092184646703   -0.08697807710937   -0.32523808952379
H         0.91958134100709    1.63246431069063    0.07743309705317
H        -0.54892109570486    0.64977843117342    0.06014601100662

