70
CSD_code = JETQAB | q = 0 | S = 0 | Stoichiometry = C27H35Cl2N2OPRuS | MND = 6
Ru        8.49257941181878    2.62671835266007    2.03753924712431
Cl        6.11931245335312    2.64258759565450    2.03002998695624
Cl       10.83051445368735    3.01656946144824    1.76466605039873
P         8.81553257897114    1.25408325637926    3.82595095787517
C         8.10802874658697    2.02684151923772    5.32381899034366
C         8.29650043911735    3.39929209454904    5.52859756564143
C         7.72918139702017    4.00413409056876    6.64077172433746
H         7.87047835844446    5.06443193785454    6.80093415736961
C         6.98875195524097    3.26837324545761    7.55072292545004
H         6.55462275969473    3.75550303277243    8.41102668895718
C         6.80665030534349    1.91200156285213    7.34967673496867
H         6.23047988957656    1.33116245044390    8.05445566865169
C         7.36230295949397    1.29657894812007    6.24170292420192
H         7.21705124363246    0.23789223117689    6.08540553429480
C         9.07490237408130    4.22996396519987    4.54303065265311
H         9.26195174553755    5.21603465041630    4.98289081139256
H        10.04280234673227    3.76685539670149    4.30869433626347
N         8.31654391395336    4.34890530694033    3.28555782910370
H         7.31432720759809    4.39706151839496    3.51833634742334
C         8.64607854618449    5.53261773625796    2.47791539986121
H         9.73382561526901    5.52578286824399    2.32378599511833
C         7.94095531417118    5.38805806778376    1.11769040254324
H         6.85776178696096    5.32198145191453    1.29362028741829
N         8.36008947705778    4.12774696432298    0.49871296032925
H         9.34139386444954    4.20882712555337    0.20478929243729
H         7.78045984032790    3.94129456390145   -0.31918685509435
C         8.24976377508411    6.58742612981123    0.21754402141266
H         7.73209120322359    6.47175452595664   -0.73798665228546
H         9.32496856367238    6.61592417158066    0.02081899889882
C         7.82176015027762    7.88941386135035    0.88567246676095
H         8.07014891893568    8.73445720147783    0.24195318347233
H         6.73950628979313    7.88501097892651    1.03175380396547
C         8.51804026695258    8.03615131197956    2.23319296698555
H         9.59769264966999    8.09583600065446    2.08087883058792
H         8.19647769494657    8.95814336606902    2.72010698657518
C         8.20097861265345    6.84522964639118    3.13343299988304
H         7.12366624283547    6.80199456507923    3.31673845749692
H         8.70133185270694    6.98470155789021    4.09234603791169
C        10.53743107121245    0.94891712717576    4.33118228288916
C        11.06253848578360    1.36944476344251    5.54766620385088
H        10.43150969614148    1.86894535160635    6.27015487406489
C        12.39767948948731    1.14494542666815    5.83741717381626
H        12.80142728061456    1.47420535901694    6.78435950075791
C        13.21397647596219    0.50845260967412    4.91855851815387
H        14.25720273426256    0.34357132130223    5.14646663378827
C        12.69294792975990    0.08634239266464    3.70525031561161
H        13.32971992952050   -0.40758368181322    2.98586632690466
C        11.36155553835602    0.30573307199915    3.40939757859582
H        10.94046651745287   -0.01612667208711    2.46681579467664
C         8.06999807274545   -0.40285563195191    3.85108934204098
C         8.75656821853405   -1.54596029914202    4.24125713736254
H         9.78587765560801   -1.47734656645033    4.56177424216188
C         8.12055144393341   -2.77479284803632    4.20991810264443
H         8.65898670259482   -3.66297518364180    4.50817553131893
C         6.80333783827493   -2.87129373652971    3.79487033644303
H         6.31465749140255   -3.83462454535141    3.76661577868551
C         6.11337970889456   -1.73168443325686    3.41260925837502
H         5.08442089119549   -1.80398166268789    3.08978368077479
C         6.74310315499475   -0.50224381116224    3.43886116979968
H         6.21333285687463    0.39356004389596    3.14291499767095
O         9.16370670200326   -0.31922411982027    1.18067738925087
S         8.60661126062529    0.90595292609235    0.63329257478677
C         9.57161909029964    1.24535864389992   -0.88503109996412
H        10.51426605985759    1.68452504169197   -0.57053289976556
H         9.02008503952537    1.92956040987061   -1.52018081689134
H         9.74720069150391    0.29974973884556   -1.38376554898563
C         7.06146428160820    0.41356112820407   -0.19784996741171
H         7.29018577693603   -0.36503983858314   -0.91560160887929
H         6.62125835736558    1.28431338278274   -0.67011037638431
H         6.39672835161051    0.03625157971749    0.57110885617013

