61
CSD_code = JETSAC | q = 0 | S = 0 | Stoichiometry = C30H26NiS4 | MND = 4
Ni        6.70321627634523    9.04491009144587    6.87898803958429
S         5.94371866610616   10.80135564094759    7.92664242714393
S         8.40803286320506    8.98166569831767    8.27239515472330
C         6.97829754848000   10.98920561624136    9.37266137867032
C         8.10558712202633   10.24382231765513    9.42419018365382
C         6.52550358039293   11.97310805032962   10.34606729718568
C         5.88623365784221   13.14127458247815    9.92825888673304
C         5.43985220468059   14.06697845719448   10.85144927553099
C         5.61731342153209   13.84201100984361   12.20646755971508
C         6.23780517097790   12.67816323680333   12.63246609726964
C         6.68204163739810   11.74683077150388   11.71530134275200
C         9.17306121501119   10.44261600144560   10.41307471240710
C         9.76524150664450    9.34798210695814   11.03648754549386
C        10.77729587463632    9.53385672233679   11.95945143315819
C        11.21777946420001   10.81147031895098   12.26074830087460
C        10.64635847041979   11.90424373175965   11.62855155580658
C         9.63144604617529   11.72490980163625   10.70884913651412
C         4.39421279372861   10.24787489351120    8.70797756759786
H         5.75643541672772   13.32433814182873    8.87090179228799
H         4.95342001418195   14.96962438400987   10.51139377353730
H         5.26972089333459   14.56696983375594   12.92715281176919
H         6.36885372755228   12.49123033848658   13.68819317296618
H         7.14939515854328   10.83412501038936   12.05306719658464
H         9.42003471456746    8.35339626775939   10.79580096504788
H        11.22496282104569    8.67815716583776   12.44331630989421
H        12.00903417858961   10.95603623902268   12.98151458211602
H        10.99596549065681   12.90171158164062   11.85110065205509
H         9.19392169983213   12.57582129927111   10.20817855866747
H         4.06598324913551   11.02723383666640    9.39017820217625
H         4.56596800611640    9.31823240852998    9.24246990199821
H         3.67138656110189   10.10235437617483    7.91110093010331
S         7.46219889109161    7.28794630927589    5.83161584816812
S         4.99797945586916    9.10725194730351    5.48598839425931
C         6.42771300339593    7.09990754066605    4.38556251248399
C         9.01174729824375    7.84132150638929    5.05027227973469
C         5.30042751794033    7.84526341326054    4.33401554373688
C         6.88056531729993    6.11603038237724    3.41215205607893
H         9.33991737239899    7.06201194577421    4.36799249240365
H         8.84005611470857    8.77102754332261    4.51587845526063
H         9.73461072441865    7.98671426080079    5.84713515301340
C         4.23297478654314    7.64646656466490    3.34510515669869
C         7.51984182248889    4.94786965109827    3.82996447249393
C         6.72406343929986    6.34231994108061    2.04291424770400
C         3.64075579589369    8.74109028849328    2.72170756907165
C         3.77464267352915    6.36416224200137    3.04929912443879
C         7.96627377087137    4.02218902863551    2.90677830504074
H         7.64959634890884    4.76478703068855    4.88732235629154
C         7.16834735249169    5.41100741103148    1.12575241807038
H         6.25669690674168    7.25501878580789    1.70514587529022
C         2.62872297970516    8.55519320510694    1.79872513429171
H         3.98592086735701    9.73568552961394    2.96241567532098
C         2.75974397116393    6.18480620576292    2.12958822130339
H         4.21218916410403    5.51325892379081    3.54996400456616
C         7.78884959008088    4.24716806009831    1.55175809751558
H         8.45271610318945    3.11955199231881    3.24684087765275
H         7.03732993972125    5.59794989804902    0.07002298747799
C         2.18829408524439    7.27756792513106    1.49739819470103
H         2.18102813511481    9.41088419212464    1.31487044056849
H         2.41017704074024    5.18732857450871    1.90702117126819
H         8.13648559669628    3.52222688504941    0.83107635130847
H         1.39705448355898    7.13298288304058    0.77661983976766

