48
CSD_code = JETTIM | q = 0 | S = 0 | Stoichiometry = C19H23N3O2W | MND = 8
W         1.73882097897712    2.25854302156989    3.83447240719541
N         2.59743825115275    3.66867233083026    4.47333406405864
N         4.40552208208951    2.21367957331454    2.15009524224806
N         2.22252332215432    2.71086181491719   -0.50946797622142
O         3.05370418511193    4.64934116410625    4.96670932323900
O         3.59615559670481    0.60215869326727    5.70431656801253
C        -0.17639752045203    1.96685697282590    2.45228413267572
H        -0.20941898817492    1.84173365267224    1.37742646732219
C        -0.31475311133285    3.19572563062081    3.13655192226664
H        -0.49500649672737    4.15983695573113    2.67732256875972
C        -0.43255172254262    2.90853979971125    4.52005209095599
H        -0.66506108968491    3.62643904842241    5.29608310002758
C        -0.33491465665078    1.51268266074601    4.68661372944558
H        -0.49488024065856    0.97261153332616    5.61097019794161
C        -0.16815838903450    0.92415579555391    3.40476245193411
H        -0.22700525147005   -0.13520553720516    3.18823593277548
C         2.92705032026807    1.19372597480408    4.97322995819882
C         3.13603675049658    1.87816436618025    2.31532690507811
C         5.09210252559773    3.04669240297623    3.11662651999778
H         4.69954810656637    4.06497444021115    3.09622802469804
H         6.15422892832902    3.07767575290905    2.88475344605619
H         4.95867127820503    2.64775695232678    4.12520637208774
C         5.26021935939002    1.74121305505598    1.07820328321518
H         4.71148457023350    1.06473387696445    0.42768903818521
H         6.11524989901494    1.20708474207315    1.49841430274324
H         5.63378402459293    2.58186938965929    0.48920734552882
C         2.55669138029652    1.02315414782157    1.25131018369841
C         2.32090485938439   -0.37282573604349    1.64146602474663
C         3.13714057677058   -0.96803842152483    2.60927967786092
H         3.95443216055954   -0.40569328063050    3.03818920499148
C         2.92847528579403   -2.27347245111927    3.00943947066849
H         3.56821944788114   -2.70847460662204    3.76318625909208
C         1.90666268792832   -3.02291365188431    2.45018472257311
H         1.73944164551892   -4.04141581116928    2.76740784697051
C         1.09736651449610   -2.45189904659790    1.48205136028784
H         0.29351147281255   -3.02614375872708    1.04309776011447
C         1.29716579503210   -1.14391870647920    1.08440473418916
H         0.62970204764860   -0.70971141707021    0.35386064400382
C         2.23529206859060    1.44652682345471    0.00561396767896
H         1.87090625264035    0.71032141877949   -0.70150221006775
C         2.52229734722052    3.89039997752513    0.25821346357676
H         2.26420835243777    3.73166444424237    1.30803160142281
H         1.92498726753493    4.71995741731261   -0.12680360032424
H         3.57952080812100    4.17396209611262    0.19068078114195
C         2.25723150410763    2.89287249778830   -1.93714332113046
H         3.27283896408519    3.10974845290785   -2.29217623197614
H         1.61381938805193    3.73006364275034   -2.21788944345843
H         1.90119146093454    1.99651190560240   -2.44105031448283

