107
CSD_code = JETWIP | q = 0 | S = 0 | Stoichiometry = C49H47N5O5Zn | MND = 5
Zn        7.67697278185154   -7.39208153408231   22.35259031721445
O         6.16836708947051   -7.32568429162602   21.18946070041168
O         7.00423934111093   -8.68028372149531   23.58515706426202
O        11.12258227899584   -4.25007416915284   22.92364135827403
O         2.63730633226328   -0.96456224568946   11.27964117331399
O        10.83563239036420  -13.77711513788219   34.09887777265372
N         8.28131184778427   -5.62259477302112   21.49204505898396
N         9.07465028636995   -6.90934907949155   23.78416301638853
N        10.21805189313971   -4.19770165656309   21.92028556445816
N        10.86692583855159   -5.25033513134149   23.79647219251823
N         8.77363939467326   -8.76465451728764   21.20751428316560
C         7.78308060122783   -5.00425336192280   20.45519148454751
H         8.28029705950715   -4.09824221480690   20.10230281133125
C         6.63082064678657   -5.43296000886009   19.77596036058079
C         6.20719202533022   -4.69218761289308   18.65114483395375
H         6.79421710953229   -3.83655503494627   18.34679879631331
C         5.08069115969611   -5.03217227871361   17.93861850296932
C         4.31960124077451   -6.15077891255007   18.36099561623145
H         3.43010840284966   -6.40987837587126   17.80414571279875
C         4.69729889607210   -6.88403732455439   19.44249149924996
H         4.11793961192554   -7.73541474778910   19.76719814579691
C         5.86825897890483   -6.58004241275558   20.20115262190039
C         9.32941644133677   -7.51177247026111   24.91467882713110
H        10.15819383549299   -7.14460336173849   25.52374209240726
C         8.58614626611510   -8.60109928233060   25.39792066083562
C         8.98184389306288   -9.18588089671887   26.62060987977155
H         9.84793136278606   -8.78356440694299   27.12789877998448
C         8.30266257972300  -10.24704172767339   27.17268775093789
C         7.16332684791209  -10.75189269694221   26.49730520310655
H         6.62657169174396  -11.58000622117835   26.93844697276835
C         6.75237407001740  -10.20950862116774   25.31969728787558
H         5.88423208590684  -10.59164828237705   24.80378227367492
C         7.43707303721954   -9.12068715590140   24.69910990196209
C         4.67676671392258   -4.29742203015719   16.80617742019908
C         4.31933113051069   -3.68500634577186   15.82758882372981
C         3.91163704538862   -2.97357242521505   14.68154439492292
C         4.65831633341517   -1.89448676484905   14.21142036087481
H         5.55489229863339   -1.60126093648669   14.73795461962955
C         4.26741009625953   -1.19855139480833   13.08338647474622
H         4.86834424543196   -0.36807001966849   12.74674103405643
C         3.11383214364540   -1.57109287157785   12.39869015091070
C         2.36085253717122   -2.65090931403169   12.87001842620054
H         1.46892566641347   -2.92472246838510   12.32846207381223
C         2.75133669060876   -3.34205047029310   13.99231131474113
H         2.16480036535863   -4.17565711168158   14.34937414773480
C         8.71999062569714  -10.83790734686556   28.38187812618589
C         9.07306786215822  -11.36435267106621   29.41077584902704
C         9.49250434560530  -11.98291990529136   30.60543082644617
C         8.74661171544345  -13.01813106004844   31.16679557122677
H         7.83564887959296  -13.33793084820991   30.68198680690445
C         9.15715095410665  -13.63887395185665   32.33103219959609
H         8.55571320163137  -14.43667734559413   32.73832587464538
C        10.33145725821348  -13.23458807326266   32.96039659300694
C        11.07866974118511  -12.19251868510278   32.40253243709616
H        11.98462468362393  -11.88981408340297   32.90406588013736
C        10.66804339266838  -11.57535321244884   31.24482773236707
H        11.25197409765223  -10.77266774925978   30.81933545966438
C         9.37471144661814   -5.17261404390126   22.14392794524778
C         9.79240621702376   -5.85037181125076   23.35241572615890
C        10.06058675693402   -8.69749328182598   20.88798271975696
H        10.60024995744148   -7.83195276041849   21.24703619616593
C        10.70157839915247   -9.66837430367696   20.13774499843831
H        11.74970188047952   -9.56927466308789   19.90363456318400
C         9.96831586022754  -10.76017127129503   19.69977185922942
H        10.43451268464284  -11.53677822646689   19.11184049863981
C         8.62544256252127  -10.83108412526929   20.03417982781627
H         8.01619383859191  -11.66203988531425   19.71582466069690
C         8.07042205073778   -9.81163418681744   20.78963889397231
H         7.03040943361128   -9.81586921815308   21.07932789608426
C         3.35172915072973    0.12311425046435   10.73086602529517
H         4.37464573170039   -0.18562855309445   10.47211814194227
H         3.40854060414176    0.94654840675448   11.45708912013081
C         2.61280891719213    0.58076435130294    9.47808073935172
H         1.59636456521592    0.86344537644079    9.75687828193538
H         2.54551274777381   -0.26150848747528    8.78740894396663
C         3.31631454358310    1.75470963571385    8.80381378255659
H         3.38266779851824    2.58948303112009    9.50578526384755
H         4.33614238076161    1.46345859093261    8.54062992289317
C         2.58106969815581    2.21009015108419    7.54571367609808
H         1.56198242457766    2.50184499285845    7.80916386202383
H         2.51451143832750    1.37500547850719    6.84475258005648
C         3.28083063837322    3.38408657551826    6.86491355029517
H         3.34936338605695    4.21882347660639    7.56623473552904
H         4.29927690713161    3.09178572333182    6.59898451218367
C         2.54038682021028    3.83528147557870    5.61202580069046
H         3.05447096892952    4.67083959455016    5.14287710688439
H         1.52885431025948    4.14978190934756    5.85946970691996
H         2.47852618354028    3.02220804958149    4.89198283050919
C        10.14403249522606  -14.84226800893154   34.71723097784393
H        10.05053589387395  -15.68600999828205   34.01861786540967
H         9.13666609276448  -14.51803892639878   35.01462276764303
C        10.93961773338880  -15.27108323570292   35.94597032009325
H        11.95994919733947  -15.49935479069530   35.63346408290857
H        10.49219419602134  -16.18179489357381   36.34883246909397
C        10.96656028774305  -14.18346757014587   37.01704433384113
H         9.94484066855149  -13.96954677758020   37.34072889411405
H        11.37637227427031  -13.27130612617831   36.58052457299974
C        11.80447045197203  -14.59518369571605   38.22419894229031
H        11.39914095369940  -15.51721859485551   38.64869682302177
H        12.82672332556563  -14.80305465378330   37.89988517484672
C        11.82964992180133  -13.51392004198765   39.30178429414762
H        10.80831412179397  -13.30784048991791   39.63018164818104
H        12.23223221761819  -12.59185355299996   38.87677109451290
C        12.67265264316606  -13.92922759230659   40.50123011720905
H        12.67602491520705  -13.14748882771118   41.25721568860733
H        13.70025779019575  -14.11775725897598   40.19795895044384
H        12.27697517370328  -14.83826046380195   40.94934549865955

