26
CSD_code = JEVHOH | q = 0 | S = 0 | Stoichiometry = C11H10Cl2N2Pt | MND = 4
Pt        2.19242804110436   10.83509627770361   11.38775717408251
Cl        2.43548569545464   10.43189287752436    9.14805450606945
Cl        1.19010236414212   12.77947055082436   10.93070281787551
N         3.06265295672116    9.13767160854931   11.96645571866699
C         3.15501808202566    8.93511046568686   13.30956771606634
C         3.74616011453966    7.77714313205606   13.81935249160619
C         4.24226239618794    6.82298388784415   12.95577403481979
C         4.13778996818557    7.04698408737532   11.58587732866154
C         3.54513847700339    8.21062208082610   11.13881801898692
C         2.59585728048214   10.00236812392984   14.10777858045977
C         2.55529523650973   10.05840863338290   15.50143753768177
C         1.98547364566144   11.14483006553421   16.12105362018855
N         1.46533381242025   12.15811203015562   15.40132234682329
C         1.49218733150470   12.12598440786858   14.06010128913070
C         2.04309730276387   11.07839836729279   13.34527497272977
C         0.85956606025443   13.29383774965792   16.05897761940312
H         3.81109547112806    7.63485863907265   14.88638149136804
H         4.70118400476284    5.92298794741658   13.33515283841592
H         4.51120710299619    6.32743763523117   10.87544331191305
H         3.44309131115195    8.42855203017150   10.08226240994878
H         2.96155121280679    9.26809280378498   16.11273193133897
H         1.93513053710350   11.22448818012567   17.19550753875146
H         1.05800395870221   12.96709828894140   13.53708982825124
H         0.99001584249651   13.22265026240486   17.13677633846473
H        -0.20665677238685   13.33157727840836   15.83084600478322
H         1.31832856628604   14.21664258823291   15.70340253352285

