28
CSD_code = JEVHIB | q = 0 | S = 0 | Stoichiometry = C11H11Cl3N2Pt | MND = 4
Pt        6.47971055904610    1.71254686718895    8.06616349977365
Cl        6.39339416397340    0.12672098589433    9.72866820680689
Cl        8.68889613151126    1.47774134327682    7.80926840353272
Cl        6.42408217012766    3.36428652548068    6.40715686703220
N         4.52680837769136    2.03086820531253    8.28842095187487
C         4.10353656242741    3.27830927643466    8.60153687090848
C         2.75454414405663    3.62118341636736    8.53523471923257
C         1.82784918165624    2.66511126877296    8.17012583817865
C         2.27523450360787    1.37944172655419    7.87936958606694
C         3.62695118187089    1.10978877565457    7.94914736442551
C         5.15759574719836    4.21937901659963    8.94795770606114
C         5.22294540316207    5.51644544201224    8.43448012677803
C         6.41080979644363    6.20553739812016    8.48445845765149
N         7.50290353373752    5.68106476084363    9.06882432598810
C         7.41190098856323    4.51933322894340    9.74789854360623
C         6.27130498125727    3.75477182539341    9.70364016273052
C         8.79446076834068    6.30792327019522    8.93583546590724
H         2.44930790510956    4.62260948600076    8.79554962341528
H         0.77800221275471    2.90783875323683    8.11844037294693
H         1.58443179908796    0.60158953408375    7.59794989091373
H         4.01678138661028    0.12276270004701    7.73298417078884
H         4.38961569104502    5.93548005429772    7.89586651972594
H         6.52259529206275    7.16394054653060    8.00343229957690
H         8.29431619275313    4.18408953692392   10.27037150610403
H         6.18302703346789    2.89015089354282   10.35024931420939
H         8.69338325424602    7.29371966992996    8.48726786736467
H         9.42921260369819    5.69198271181112    8.29473904546528
H         9.27399843450520    6.40238278053270    9.91076229293436

