81
CSD_code = JEVNED | q = 1 | S = 0 | Stoichiometry = C30H44N6Tc(1+) | MND = 6
Tc        3.78118381097748    1.70937308403918    1.99346367949101
N         3.60618911426982   -0.33457070344652    1.67047798616386
N         2.36941242729911    1.60563267066437    0.47358764505393
N         6.12441218027926    1.92200641963943   -0.11312768180952
N         5.92861893621557    1.44930988478178    4.27663192520745
N         3.77120870747953    4.85081139908328    2.13299273838741
N         1.50509818053455    1.62979516110188    4.18183776700851
C         4.27820609589247   -1.28631237060306    2.32335352655625
C         4.13560775985650   -2.63403963302859    2.07053267938695
C         3.24454355088458   -3.03983201557077    1.08210413013471
C         2.54208595438185   -2.06907927676618    0.39823542338580
C         2.73808365880862   -0.72182601087153    0.70821957358918
C         2.04153233703995    0.36811448071629    0.03732813182456
C         1.10455654052154    0.17494612278973   -0.97970562120972
C         0.49008666296985    1.26395896713899   -1.56272014960734
C         0.83144781521724    2.53373193363113   -1.10797179919892
C         1.76490613594420    2.64922927079500   -0.10015896855123
C         5.25674696147356    1.82805928524517    0.65976106503542
C         7.22014262583103    2.11833437144694   -0.97902163410589
C         6.89668217097728    1.45799862638446   -2.32197848852739
C         8.45292837391838    1.47429556241656   -0.33766806478909
C         7.42121495150543    3.62772775013773   -1.14706089025450
C         5.12803565313985    1.59586564957172    3.42957334062262
C         6.88779070676607    1.59629944972447    5.30509754723952
C         6.16576759268866    1.47431645050738    6.65034947939735
C         7.93191897863494    0.48733587019725    5.14839768017504
C         7.53611196907129    2.97707579784759    5.16176829851408
C         3.80371189827773    3.67727247556469    2.12709796404774
C         3.92684663027295    6.24267895027113    2.32048742804632
C         5.39894410812069    6.59352922187321    2.08234279423154
C         3.02763258849769    6.96462991643218    1.31275645238040
C         3.51299353869505    6.58126364370505    3.75584600610322
C         2.34471668995723    1.65052366325829    3.37355123089030
C         0.54909964558848    1.67704347973793    5.21756697597877
C         0.36457081924593    3.14330108138078    5.62062082770357
C        -0.76143176656178    1.08825544987682    4.68792771732220
C         1.08203135197358    0.85301127400332    6.39345269498560
H         4.96290646000149   -0.93858713024302    3.08464282628770
H         4.70778030585861   -3.35380203209690    2.63279590240322
H         3.10495922971721   -4.08447075913948    0.85440939411825
H         1.84583304498595   -2.35526518530564   -0.37240830626103
H         0.85825861070939   -0.81970865282052   -1.31214386198568
H        -0.23514727783707    1.13180453439678   -2.34955072793470
H         0.37943440789178    3.41617826085248   -1.53056627164667
H         2.05126383341247    3.62207751465646    0.27513012842024
H         7.72680263032481    1.59589692946730   -3.00890346420326
H         6.00504541955294    1.90114312837654   -2.76045811036137
H         6.72679010456158    0.39122244099088   -2.19204995521186
H         8.29590530450642    0.40718668377273   -0.19625660505496
H         9.31826323193095    1.61747059253263   -0.97873193755874
H         8.65475723375060    1.92679549746184    0.63074772363900
H         8.26475721386262    3.81575260283476   -1.80530705139368
H         6.53271299155629    4.08360585650697   -1.57841666676701
H         7.61669315052509    4.09223970869014   -0.18294965186975
H         6.87874328632349    1.58110340218263    7.46284638245120
H         5.40877738924122    2.24956985092159    6.74282853190401
H         5.68187294282268    0.50432326639897    6.73608141095210
H         7.46615964392839   -0.49072665568519    5.24322876737039
H         8.40968889418744    0.55181339634211    4.17358531890430
H         8.69310183465799    0.58453708130236    5.91705903718072
H         8.27632132826566    3.12158999796327    5.94360243931478
H         8.02402200553288    3.06693527936851    4.19423117417138
H         6.78142057806809    3.75590433067561    5.24142370274865
H         6.03336786263004    6.04507277912440    2.77459863992406
H         5.69007358684369    6.33515508990278    1.06702566135882
H         5.55339706518563    7.65851195658774    2.23040874660759
H         3.12846777349978    8.03960515192915    1.43038926518626
H         3.30692260705533    6.69863104941861    0.29580171648044
H         1.98609494498318    6.69418826287131    1.47082973482202
H         3.62592649692149    7.64739682002644    3.93078665938206
H         2.47476928723387    6.30657002623613    3.92616187470545
H         4.13484510199075    6.03986914833082    4.46476532703695
H         1.30826818998631    3.56389300843885    5.96076377739848
H         0.00918629977192    3.72820283282472    4.77522211093087
H        -0.36220612788181    3.21481123011424    6.42486480054809
H        -1.51751788625597    1.11357550182950    5.46749288113610
H        -1.12065450133092    1.66176185011746    3.83592368890830
H        -0.61802970621893    0.05560665023093    4.37643993351118
H         0.37123847147512    0.88190744214614    7.21442886874249
H         1.23060034319319   -0.18307428354970    6.09725977488307
H         2.03239103623229    1.25495818927060    6.73761699822802

