96
CSD_code = JEVTAI | q = 0 | S = 0 | Stoichiometry = C36H50CoF3N4O2 | MND = 6
Co        4.55431117175613    6.60949976804488   12.19412554266592
F         4.87863848759820    9.37575368994707   12.56387015158657
F         3.21176189186445    8.56222087718260   13.63319984268869
F         5.19659687340148    8.19906381159412   14.32286977769355
O         6.43131621808400    6.60701279305248   12.53553012333635
O         2.70243819345503    6.56523411399121   11.83184067328270
N         5.98547147912160    7.65254956890308    9.98150040310330
N         3.91011551304191    8.34153747500882   10.04393497855093
N         4.23858460478886    5.71672658628646   13.78119678446566
N         4.86877585326967    4.97091592409390   11.19744390810689
C         4.82443176471993    7.58243154304230   10.63708209665988
C         7.35760984904809    6.49793777911380   11.63006923850235
C         7.18316337344543    6.99829836535003   10.31382594393263
C         2.54968865714153    8.44435607880097   10.37976243602554
C         1.98486382070749    7.49780411312274   11.26897877772508
C         8.17063484567489    6.85079148089066    9.35265649784196
H         8.00027625888879    7.23425524998497    8.35967582645195
C         9.36984063127198    6.21553251018455    9.64046065763079
C         0.42025396776521    9.53656091003207   10.05691478612070
C         1.77999931786829    9.44637945085863    9.80966218136371
H         2.25083816149138   10.17266549090023    9.16756353309907
C         0.58532307865257    7.56981294577041   11.49411317929687
C         8.59666462914679    5.87220006707221   11.93116313801403
C        -0.38284350385768   10.65958307013831    9.41614450262261
C         4.45331934677470    8.23919491876171   13.18357457203776
C         4.48476847795014    9.10739955193223    8.94480268932942
H         4.53631013692842   10.16605849844774    9.21910333089987
H         3.87697911498530    8.99739226822087    8.04372237131337
C        -0.08530037352216    6.53370925461833   12.38968086208838
C         9.55336747476226    5.75086609681567   10.93859327227027
H        10.48241696355030    5.27075621864801   11.18352505174767
C         5.62413593418028    4.34221794920660   10.60307418075326
C        -0.14512636461018    8.57373209394174   10.88523842461569
H        -1.20176406675488    8.61751543242918   11.07149846799817
C        10.41361915967572    6.05780906727674    8.54361469587006
C         8.84121846323893    5.34849381016318   13.34181839387547
C         3.97758744684920    5.48943499907523   14.87457206574421
C         5.87555370081688    8.49220860347153    8.79506216163444
H         5.94928105570440    7.88116933081026    7.88772688614385
H         6.67208884679512    9.23940245739875    8.78621617018909
C        -0.27074916304783   10.55636613168599    7.88792918956142
H         0.75854379522622   10.66759174123077    7.55785698887878
H        -0.86518744982667   11.33430237018469    7.41259992650594
H        -0.63456854561966    9.58809120438809    7.55046532049054
C         9.82796798229323    5.20449070298441    7.40826318669230
H         9.57889602477384    4.20978253220669    7.77386983238959
H        10.55190416991375    5.10162546891185    6.60249066095037
H         8.92684632727419    5.65453348124477    6.99992384258333
C        10.79568977586843    7.44297771958559    8.00307693076853
H         9.94382594077742    7.94153615921895    7.54899858041688
H        11.57607466240949    7.35222441793907    7.25007510701795
H        11.16565325053501    8.06939790628402    8.81155752994572
C         6.55954970154375    3.55433462929719    9.86154095624400
H         6.24084831907989    3.48386566532625    8.82194026258527
H         6.61999921032157    2.55437587682210   10.28976100631647
H         7.53926546101235    4.03319186011480    9.91026665742712
C         8.69299076838568    6.50487824066701   14.33882243956561
H         9.42276697485335    7.28194270084898   14.12073767126587
H         8.85648450013355    6.14966516028245   15.35453167090171
H         7.69833797095759    6.93344341558066   14.27315030707906
C         0.17707936730585   12.00932335223853    9.88662607434811
H         0.12181282897161   12.07794225998535   10.97058468071222
H        -0.39722845311325   12.82785326059487    9.45656000967814
H         1.21591426983905   12.13110968881015    9.59294825656477
C         0.49035993199430    6.64720596317961   13.80682554590606
H         1.56031032453093    6.47412834592928   13.78547487077763
H         0.02199429159754    5.91426925793955   14.46262462309025
H         0.31158008538519    7.64311124741513   14.20555479106510
C         7.81203857726561    4.25412298081870   13.65996503732210
H         6.80481200999737    4.64907201285115   13.57351815080971
H         7.95667418756942    3.88945593847901   14.67507350233237
H         7.92451655269209    3.41598591896017   12.97317771956270
C        -1.86802848260884   10.60949259679189    9.78460591519366
H        -2.38929380177768   11.43615590095010    9.30501668462340
H        -2.00583839153926   10.70332843173639   10.85886058348449
H        -2.32420704722224    9.68252939159723    9.44523333053061
C         3.64909369431105    5.20755172293550   16.23503356816989
H         3.93597223295027    4.18729134343981   16.48707693534836
H         2.57616277339274    5.33424879497913   16.37817881114522
H         4.18438394868064    5.90700166624956   16.87695115364695
C        11.69264313982376    5.37591966818064    9.03676952248768
H        12.16025217854117    5.95422192149793    9.82967287346100
H        12.40151749920243    5.29652850313012    8.21468673336044
H        11.48890316963051    4.37147559220598    9.40089128316873
C        10.23868679923839    4.74602250357293   13.52527922199323
H        10.39090123903266    3.88310492545339   12.87970095940805
H        10.34850640712006    4.41341607763085   14.55577795110823
H        11.01406933126555    5.48254429794725   13.32809536271781
C        -1.60477087881674    6.71150686055761   12.48270990576240
H        -1.86455377082780    7.67024245392371   12.92535860193741
H        -2.01549686530877    5.92871204263091   13.11832978282402
H        -2.07379273320004    6.62778363256569   11.50483853544573
C         0.18813692919042    5.13124607028939   11.82894656284554
H        -0.22354733523680    5.04170373758070   10.82524067600513
H        -0.27326933811310    4.37529879657924   12.46214281768545
H         1.25715519574644    4.94919124092654   11.78640232060652

