82
CSD_code = JEWBUL | q = 0 | S = 0 | Stoichiometry = C31H44N4O2Zn | MND = 5
Zn        3.74794315224373   20.64689182775489    1.66965331572624
O         3.31839790710428   22.76873588208117    2.07465950019340
O         4.43704064472188   18.63538040896746    1.09071933354656
N         2.11931796774446   19.47878526943690    3.98972654047265
N         0.85408153796758   19.86750047533524    2.31658175955066
N         3.55604056821035   21.82053353645282    0.08941368066443
N         5.61007359492879   20.18346914207168    2.15145137804123
C         2.12167767932976   19.94905210788726    2.73706804620769
C         0.85725874000017   19.10118953892672    4.36026610263693
H         0.63991158815436   18.69929307524685    5.32902320143858
C         0.05337316352575   19.34907442142979    3.29780490880055
H        -0.99843571421804   19.20018187438616    3.16066541327708
C         3.26567166233398   19.38346271495246    4.82192084100186
C         3.97571665370968   18.18517496105886    4.86052413247083
C         5.06847645410483   18.09974079514113    5.71074114227889
H         5.63129828981833   17.17789130744071    5.75199545167197
C         5.45466072909141   19.17127553454037    6.50374463966529
C         4.73447877363272   20.35608244587353    6.42809599879459
H         5.03743579196584   21.19835441736767    7.03377597290810
C         3.63879110393726   20.48656440490610    5.58807108027551
C         3.57605723693131   17.04068692261714    3.98281200313696
H         2.53135983414252   16.77121353725840    4.13657216949899
H         4.19377325393526   16.16924589496544    4.18245765458736
H         3.70001993235250   17.32443097143038    2.93692763374891
C         6.65138989800167   19.07195239368471    7.39981760190967
H         7.51226002951040   19.53656860824960    6.91834964662781
H         6.89835094258554   18.03400369117004    7.60847266606518
H         6.47449148377425   19.59029298189956    8.33976734021522
C         2.88924332672632   21.77624834336580    5.47549066871297
H         3.03891048484890   22.19888189866441    4.48154865069162
H         3.24287278371147   22.49105380103161    6.21340940018046
H         1.81990657189079   21.62389668949337    5.61940690405977
C         0.39809341922487   20.26587249789430    1.03237484821749
C        -0.10001221963405   21.55610367212450    0.86217993238285
C        -0.57993658235615   21.91182985794941   -0.38969305199260
H        -0.96915757183063   22.90898523144597   -0.53947071901545
C        -0.56787486348790   21.01748435257496   -1.45096362235857
C        -0.04837504679421   19.74546786212603   -1.25079869721478
H        -0.02414041124996   19.04837958363626   -2.07636047085268
C         0.44655557395242   19.34990800283793   -0.01709432991555
C        -0.08549729604128   22.52846436672940    1.99981271127316
H        -0.59403929032910   22.12163282196111    2.87356738243495
H        -0.56983559065166   23.45899076801450    1.71640310949583
H         0.94637306580893   22.74326620752875    2.28066160282431
C        -1.06992468202943   21.42358166323599   -2.80301759083236
H        -0.23051800214278   21.70635247379976   -3.43888293800096
H        -1.74240508754209   22.27476948305856   -2.73054519514353
H        -1.59145429538834   20.59957878917619   -3.28516791586976
C         1.04451046067992   17.99403328307767    0.18745481206288
H         2.11176529145911   18.09286427475092    0.38771366189197
H         0.91306335307977   17.37924126870474   -0.69869326867107
H         0.58778601010125   17.48668845256881    1.03686221031778
C         3.39909199580293   22.87038363956439    0.83097819803210
H         3.31925850800165   23.87413884237420    0.38411752558802
C         3.73528204666073   21.88653778846568   -1.35174135223342
C         3.51004145373870   20.47214577559395   -1.89169625519201
H         4.10492670932317   19.76413560020985   -1.32045269359881
H         3.79091551230814   20.41215967434684   -2.94091722399998
H         2.46310095397097   20.20057631831528   -1.78673884339249
C         2.73642485040439   22.84406855430763   -2.01780634824330
H         1.73309178795219   22.64475627323595   -1.64819976752088
H         2.75235438491897   22.69720963580527   -3.09559297561730
H         2.98402888382482   23.88302975186500   -1.81458924574651
C         5.17294653365660   22.32904136795415   -1.66026195051043
H         5.36847449782095   23.31062958657945   -1.23257752963489
H         5.33572253193906   22.37604364436260   -2.73490243482504
H         5.87362775380167   21.61810046992701   -1.22847508582161
C         5.52290944972761   19.03054257957095    1.56837071200533
H         6.39829677895361   18.36603248351194    1.49192656648664
C         6.86220380701337   20.72498992543769    2.65387964961007
C         7.66406256583108   19.68691410864380    3.45247243585539
H         7.01285184416393   19.18976791328399    4.16776461403547
H         8.46908484374763   20.18213481713100    3.99112626650920
H         8.10489122316209   18.93658164540167    2.80077647776477
C         6.50199540518948   21.89497277963119    3.57265807247814
H         5.81091214698155   22.56085402175639    3.06224387615010
H         7.39353571166930   22.45093638905033    3.85451052008225
H         6.01568394005942   21.52196005314277    4.47006076728451
C         7.69876718191188   21.23971942480838    1.47354367518100
H         7.91575922975475   20.42961682266208    0.77979709781892
H         8.63811252975601   21.66024176032710    1.82615862879018
H         7.14492263639360   22.01047356443136    0.94248937258295

