71
CSD_code = JEWFEX | q = 0 | S = 0 | Stoichiometry = C30H37N2PPd | MND = 4
C         2.10116943431167    4.72490572619225    4.35803822595907
H         3.11183492085863    4.31404505988087    4.27062676936256
H         2.12970669547150    5.64392583428355    4.95776093079970
C        -0.12211146306710    3.86858854881170    4.91277329341092
C         0.46874211348226    2.06263495575309    6.10241414792063
H         0.31212917225247    1.17629871368109    6.68277084549352
C         1.60753873394149    2.66721793626123    5.69082376867260
H         2.63442700304763    2.40430243520874    5.84457057488011
C        -1.93559236583214    2.57441195181650    5.95191083724816
C        -2.41004275334844    3.07245886974822    7.17121323139032
C        -3.74274262690287    2.85442610769588    7.48715012514935
H        -4.14792520609601    3.23850119836230    8.40909609545863
C        -4.56870404173948    2.15642133630286    6.62489312976741
H        -5.60492770171272    1.99987381444334    6.88608331074377
C        -4.07962843104309    1.66984372058757    5.42960629680451
H        -4.74048043283639    1.13842976898658    4.76303474038054
C        -2.75241729398779    1.86939544915023    5.06967912247852
C        -2.23814016636756    1.38045219964449    3.73736401871622
H        -1.14850420172521    1.49287678699924    3.70950754457401
C        -2.56006529150208   -0.09864735670154    3.51401183486599
H        -2.21034689117116   -0.69923664262053    4.35160233404580
H        -2.06819307159994   -0.45156182404867    2.61012231076518
H        -3.62897213871545   -0.25693593262427    3.39957024372865
C        -2.83446930796463    2.24944570758561    2.62575963905450
H        -3.92037038997784    2.24706717484042    2.67961010135040
H        -2.53780379942227    1.87181250800498    1.64943665867617
H        -2.48649172398867    3.28972932405329    2.73720959331908
C        -1.50046092089027    3.87651201879134    8.07343545329604
H        -0.47575160711632    3.50458193574158    7.95732388392913
C        -1.86178417246009    3.75281667452562    9.55379651427918
H        -2.78366360968291    4.28212713487802    9.78007371189104
H        -1.07103070578371    4.18975556293620   10.16021930028660
H        -1.97668862147666    2.70890924297095    9.83865229355035
C        -1.52795960761478    5.34702886021386    7.64071228133116
H        -1.21190708366547    5.45511454672194    6.60166964175524
H        -0.86465826520054    5.93568503033595    8.27155401219273
H        -2.53643899083565    5.74423532471475    7.72987336698004
C         1.65011354549285    3.46376057941000    1.93028187843717
C         0.52804344397680    2.73351644985199    1.55906800401144
H        -0.45042273341265    3.19590278873433    1.68663944251165
C         0.66770872602924    1.46149173730325    1.03259205737935
H        -0.20458777137812    0.89316799631289    0.74445816500001
C         1.93181834243245    0.91951720801225    0.87141294887805
H         2.04667551023037   -0.07332541640836    0.46144603315435
C         3.05472846690320    1.65146100174706    1.22763371236490
H         4.03959823672941    1.22821203423284    1.09100337820160
C         2.91907741167759    2.92162857277363    1.75610415274943
H         3.79603682218983    3.49743914307435    2.02112554411108
C         2.64742417650659    6.08922408370963    1.90366065419384
C         3.39083486037799    7.03169690380642    2.60706697251457
H         3.23984696443913    7.16119204932277    3.66941461139755
C         4.32311723399398    7.81392496607993    1.94914391341031
H         4.90326743101760    8.53723613491350    2.50414760394160
C         4.51025951579371    7.67688889078507    0.58384286505746
H         5.23896469152794    8.28935719589875    0.07379654550446
C         3.75122064815494    6.76141517595237   -0.12820497284343
H         3.88421085453754    6.66220161159471   -1.19573376319213
C         2.82007606294658    5.97812903515590    0.52549233590145
H         2.21868195280977    5.26838689016225   -0.02745954629943
C        -2.81427735062408    5.50377128186041    4.18293431319125
H        -3.62860355756436    5.48263016492310    3.45423129730817
H        -2.78324664129796    6.51265615817752    4.62038704622926
H        -3.05818143770453    4.78924044911597    4.97453325477464
C        -1.52185607525889    6.40571851717890    1.83478737140730
H        -0.92356626241696    7.32901221517340    1.91195921111338
H        -2.57245688659985    6.69442544581436    1.75776799853099
H        -1.23973854774914    5.90537882105161    0.89194874912985
N         1.22616885084430    3.76837253248425    4.97399619600069
N        -0.57416164511746    2.81252515997562    5.61856141573622
P         1.33680341052822    5.09441429924605    2.68753970459410
Pd       -0.93325343966752    5.19168021843957    3.38717072108856

