83
CSD_code = JEWGOI | q = 1 | S = 0 | Stoichiometry = C26H33F21IrP2(1+) | MND = 8
Ir        6.09222225599517    1.27347524643732    2.71890311745188
P         6.86597682171338   -0.53511020830591    4.12502746477559
P         6.69022367824236    0.24557282166523    0.65396701985852
C         4.26590093143262    0.22079376134735    2.74282561780539
C         3.15570386405456    0.46523874082082    1.68642131487811
C         1.72421318860334   -0.06459840268382    2.02797859130650
C         1.64119362630791   -1.59816961227315    2.30427527761502
C         0.18528713894351   -2.14510333972731    2.14210531932669
C         0.02122840876045   -3.54699596056708    2.81854984006354
C        -1.22023382771946   -4.31945673406713    2.26397570675449
C        -1.64263184950662   -5.49571549117319    3.20571553500160
C        -2.53831624404535   -6.54296381442429    2.47144817615412
C        -3.31577842219088   -7.45948140737624    3.47272111372063
C         5.09621865932918    3.24531790934179    3.37223660678982
C         5.72602602865120    3.42597019753627    2.10385227744960
C         7.15244061670978    3.26875980251323    2.29654844282269
C         7.38238688564305    2.92079191643315    3.64524826392179
C         6.09290690966857    2.84209046893942    4.30672081597114
C         3.69759405951753    3.61202257023613    3.72702914981442
H         3.72209325796588    4.51756224232911    4.33546086774931
H         3.20751790369034    2.83800319499678    4.31362820074706
H         3.10190181664506    3.80734742885898    2.84164864940654
C         5.09843411433219    4.11744330151077    0.93871547092958
H         4.82633866766424    5.12956160805686    1.24112041472198
H         4.19160346979074    3.62130838662847    0.60621759658858
H         5.78502807005261    4.19362080410392    0.10106878098628
C         8.21159170741804    3.72591035742654    1.34894112959515
H         8.30891043763246    4.80988802817939    1.43639087590630
H         7.97022428041220    3.50195210226352    0.31278403196734
H         9.17600784319697    3.28695894936197    1.59197391186659
C         8.71343774056834    3.02034109477068    4.31729767415133
H         9.05118420407156    4.05630656764318    4.25869317666309
H         9.46869096853023    2.40320106832456    3.83524599697117
H         8.65463096018816    2.75215847213523    5.36702587233987
C         5.86709356954186    2.77510204108794    5.77972579993558
H         5.90047501067748    3.78519113276425    6.19201988064773
H         6.62617935456051    2.18201203808175    6.28420899725226
H         4.88638728170532    2.35989489136664    6.00032744505864
C         5.78702133126216   -0.94043774919044    5.54019535997085
H         6.33683330824529   -1.57996737627832    6.22955397108834
H         4.90144244359626   -1.46585855616571    5.19210686166763
H         5.47204149940376   -0.03884696721932    6.05744356524222
C         7.19749103263203   -2.20809361430351    3.45815991265971
H         7.46003679085854   -2.85519115288313    4.29439242638509
H         8.03207579299532   -2.17660540777065    2.76239840129601
H         6.31844722222908   -2.60999746691638    2.96558575179120
C         8.46540970573314   -0.23866409291135    4.96465088180864
H         8.76114215874252   -1.14431160528666    5.49162652785407
H         8.37454536326536    0.56860976979677    5.68353931053539
H         9.23506932178740    0.01423703042134    4.24049493451015
C         8.51014712558909    0.20632078400260    0.43653713113125
H         8.75177416526187   -0.27954269115711   -0.50727300958810
H         8.96750290083820   -0.34939712438812    1.25163359938944
H         8.91404276761014    1.21368205207698    0.43046864667592
C         6.28235055893732   -1.47543901481740    0.17774844181741
H         6.45823313392648   -1.57422003820176   -0.89256670964190
H         5.24684003191679   -1.72173051037109    0.38437335764859
H         6.92378537577051   -2.17226007215191    0.70760645575030
C         6.16126838655758    1.15893857153676   -0.83639397539494
H         6.62824556784768    0.71131729263199   -1.71286510789064
H         6.45579919684728    2.20112548489266   -0.76994982519594
H         5.08194327490594    1.10385888222101   -0.94248681309434
F         3.69045290005588    0.44490564164807    3.96871761843379
F         4.45474371622135   -1.15017703054295    2.72475428094662
F         3.02244453209352    1.78390953431651    1.43778170506132
F         3.54111433875302   -0.07907644141127    0.51055291073230
F         0.92481829474079    0.24301055109623    0.99042916868228
F         1.25025118775598    0.59552193581834    3.09629824517025
F         2.08800834212651   -1.84738205026909    3.54482173119962
F         2.43675242908603   -2.26801157764765    1.45126603339162
F        -0.69262719378383   -1.29743272354999    2.69335614062355
F        -0.09146431058824   -2.22757736938323    0.83311561147535
F         1.11860922069195   -4.29050823932895    2.60400917633448
F        -0.08864400966566   -3.37038050849262    4.14253261093951
F        -0.91254086698375   -4.79028146384105    1.04672388115273
F        -2.25773528107066   -3.48370301069714    2.12697513295563
F        -0.55208996672659   -6.11999425703181    3.67679741089917
F        -2.29686998657747   -4.98503473889666    4.25911202056560
F        -3.42378477134298   -5.92516303782648    1.67612537749207
F        -1.75730061271622   -7.30798200367137    1.69380905496419
F        -3.82411911274816   -8.49992934174867    2.83296353625700
F        -4.30756987465869   -6.78850021843100    4.04144068893559
F        -2.50933082031270   -7.90794225234434    4.42779314245129

