69
CSD_code = JEWLUT | q = 0 | S = 0 | Stoichiometry = C22H42N4Pd | MND = 4
C         5.63278642120493    8.36670307419916    1.29116091271493
H         6.26537482131596    8.78413224519159    0.51013794646038
H         5.99824195269111    8.72814892935655    2.25162538297869
H         4.62059126134763    8.74026887215274    1.15696601775240
C         5.62449221665768    6.85208071586048    1.24866320395668
C         4.47415811307186    6.22375857319400    1.74978958795981
H         3.62680714586858    6.84585739773254    1.99705793561715
C         4.54119692955820    4.93706771670065    2.31981506805613
C         3.64199351013596    4.68214674210635    3.50920526567843
H         3.30253516737307    3.65024703635692    3.54667223600694
H         2.77532540258625    5.33593895456947    3.46733630579352
H         4.18095516307578    4.89699616992190    4.43281676084861
C         8.02271653891459    6.66249586714246    0.97343451818092
H         8.12304633170202    7.66267808717417    0.51753536701092
C         8.41511907330257    6.78154035037126    2.45553447141827
H         7.73396890394204    7.44003745693917    2.98803019699202
H         9.42456188043230    7.17583548567358    2.55032315419684
H         8.37317889347490    5.80123361554752    2.92445880023683
C         8.97940242015931    5.69567081270625    0.27224320775328
H         8.92120584285744    5.80966820619409   -0.80631394538927
H         8.70048236285992    4.66581689605471    0.52777824518017
H        10.00541306028932    5.87864020584282    0.58539886768751
C         5.87180622572538    2.95880406074255    2.74442074997886
H         5.74799772382288    3.21074444629755    3.80978567570128
C         5.12093560152609    1.65103945138820    2.46392866802710
H         4.05250402961111    1.75436112458189    2.63898168822181
H         5.49755619851814    0.86335991554032    3.11332771812199
H         5.28119713859385    1.36199918763712    1.42991697214739
C         7.36321096712756    2.74509566142148    2.45839620805782
H         7.94009534145398    3.59558109715491    2.81722436226704
H         7.50466715217022    2.64736582174487    1.37291354944993
H         7.72684010412421    1.84516630702295    2.95029124967304
N         6.67299604593658    6.15306574762061    0.87347821664863
N         5.42918145291687    4.06452078766622    1.92146754024027
Pd        6.08423561902460    4.38964007641847    0.00005836251758
C         6.53532685077069    0.41278096487194   -1.29117171970351
H         5.90278296921778   -0.00465464344173   -0.51010728945388
H         6.16982733262089    0.05132588242410   -2.25161476328507
H         7.54754068673388    0.03923844559666   -1.15702163417656
C         6.54358545014555    1.92740312432138   -1.24870092065832
C         7.69389646642049    2.55575569744324   -1.74983466837335
H         8.54126080954552    1.93368133562484   -1.99710755636176
C         7.62684096808858    3.84245969504294   -2.31982707808956
C         8.52603865752955    4.09742366048723   -3.50921007670308
H         8.86553590890831    5.12935402221647   -3.54658931547423
H         9.39271449052906    3.44356175188444   -3.46739547172070
H         7.98699854979976    3.88264642673060   -4.43284323252960
C         4.14535811269085    2.11697814192523   -0.97342961950966
H         4.04502931785291    1.11679760952009   -0.51752284575306
C         3.75298249903844    1.99789384038825   -2.45553324416269
H         4.43417378907788    1.33941577133513   -2.98800459728234
H         2.74355766389273    1.60355413853878   -2.55034112320056
H         3.79490250819219    2.97819710681371   -2.92447014028403
C         3.18863172807469    3.08378580562742   -0.27227717984051
H         3.24685211176945    2.96983545579257    0.80628557368176
H         3.46749764277394    4.11364364849023   -0.52785402754104
H         2.16263131280781    2.90076337057220   -0.58541422588162
C         6.29616804945236    5.82069752311929   -2.74438132239809
H         6.41996663280921    5.56876103994762   -3.80974755096253
C         7.04702513193999    7.12847040553641   -2.46390468864009
H         8.11545396237646    7.02515828455096   -2.63897624992166
H         6.67038695069566    7.91615102655063   -3.11329551802590
H         6.88677345161040    7.41750090456411   -1.42988970685069
C         4.80475692099711    6.03439018297991   -2.45837594703721
H         4.22787396712336    5.18393024242394   -2.81726996404233
H         4.66326387393956    6.13206533320467   -1.37289371466991
H         4.44114231192254    6.93434447485379   -2.95022795827691
N         5.49509039713756    2.62639986732056   -0.87346664732676
N         6.73885551014134    4.71498236651600   -1.92144604368856

