46
CSD_code = JEWMAZ | q = 0 | S = 0 | Stoichiometry = C18H23N2O2V | MND = 5
V        -0.98031499134004    2.09385041806374    3.92355522121656
O         0.35127596497061    3.03829963443989    4.28922009627016
O        -0.82118443581312    1.93976629546603    2.26373064836646
N        -1.48103247431692    2.24003453381729    5.75518764864648
N        -2.74916852585215    1.39484473715969    3.72582008068840
C         2.06898550199638    4.58483932814028    4.93551626160639
C         0.84463316752808    3.74722434065790    5.22127309301001
C         0.26026102495849    3.69536373100459    6.47455049791955
C        -0.86742620088477    2.89380161683149    6.72553241748784
C        -1.31610593725968    2.80587529086133    8.16812706265015
C        -2.58959959748801    1.39586380672651    6.12056591686471
C        -3.53730529510596    1.33942549500393    4.93050889704805
C        -4.84097451695476    0.68343403777500    2.60093960616281
C        -3.38267433701890    1.08303366181843    2.60356807292429
C        -2.74414610364871    1.11429635306190    1.35514669376131
C        -1.43942899715613    1.56478862717456    1.22269293328023
C        -0.75298879957746    1.65393606132960   -0.12061328912605
C        -0.12153183182856    0.30007245075888    4.31448042912603
C        -0.46839647420754   -0.83587933902616    3.58893792982774
C         0.10638758637635   -2.06919478465186    3.85709737848637
C         1.04795219783992   -2.19651659535528    4.86353341217278
C         1.40924043909965   -1.07744354285193    5.59338253718611
C         0.83122596204750    0.15286449683073    5.31851368072430
H         2.44870949299398    5.04250570807628    5.84386044757767
H         1.82559666430170    5.36805811473022    4.21717669381739
H         2.84245729733789    3.95613325253901    4.49458395211106
H         0.69527860203329    4.25857590520282    7.28538596403747
H        -0.62450906875289    3.34945094429951    8.80529050599749
H        -1.34390155509389    1.76801351197018    8.49889279736105
H        -2.30789529839792    3.23865602557469    8.30418341128032
H        -3.14066967773932    1.74608807735417    7.00160808339780
H        -2.20145575587937    0.38736473139774    6.32531913478762
H        -4.14162291618473    0.42434178614846    4.98893900649040
H        -4.22161487559590    2.20273126298712    4.97286483334675
H        -4.98614495249022   -0.26330967764073    3.12284585058959
H        -5.19493330506269    0.56389862257383    1.58102638021904
H        -5.45601441296215    1.43753815466112    3.09190082753651
H        -3.29206776942097    0.81383288446554    0.47567251662617
H         0.30757601606159    1.43999951814264    0.00260386258930
H        -0.85251137196238    2.66095236836297   -0.52768307590236
H        -1.18796630087859    0.95061496251635   -0.82480307989102
H        -1.20426945127390   -0.76826478592400    2.79375283164547
H        -0.18295462158197   -2.93512959147777    3.27647355228031
H         1.49699527821145   -3.15645989228017    5.07512131870059
H         2.14665130619103   -1.16136125256298    6.38072235017717
H         1.13608334978090    1.01198871384645    5.90819460892421

