95
CSD_code = JEWNUV | q = 1 | S = 0 | Stoichiometry = C46H45N3Rh(1+) | MND = 6
Rh        5.25351146400766   14.63050071262555    9.74932942788106
N         3.12897058162735   15.28056347545842    7.76933953797644
N         2.33581517962137   15.41802143340327    9.78843339058322
N         5.96174453892063   16.33451805190898    8.75738792099761
C         3.41673426094048   15.10240899337631    9.06339856373396
C         1.72349019937316   15.62949388483728    7.54134263138769
C         1.25240480633813   15.97361894614410    8.96733174789237
C         3.94376238161643   14.87938344929186    6.68498455902415
C         4.25391999433065   15.76544192700722    5.64860256172054
C         5.03501346561863   15.29686703387657    4.59812263017317
C         5.51998169616397   14.00277267333046    4.57259385169707
C         5.22674392217114   13.14015770999756    5.61500371705088
C         4.43477026050688   13.57660454282082    6.66011848119609
C         3.80947798326016   17.19729094240982    5.64198551902816
C         2.29382095622347   15.58440376943057   11.19296222945863
C         1.24286175227325   15.06668247725219   11.95726395922485
C         1.23883927649368   15.32377629305800   13.32392027362249
C         2.24595486522361   16.04678222614097   13.93418430289505
C         3.30853601053966   16.51100278595804   13.17792584504984
C         3.32525754565891   16.28127490088478   11.81636219393063
C         0.15778741787736   14.20724160248691   11.38085274372401
C         0.98392751914006   14.46061745572193    6.93895251570196
C         0.21243038336501   14.62568644249193    5.79795510959524
C        -0.46667691979099   13.55018511465598    5.25243486694020
C        -0.37588148413776   12.30049774179964    5.84054011779950
C         0.39497236247739   12.12808445864945    6.97808572828290
C         1.07095018751905   13.20289646385491    7.52457626130873
C         2.14247246997722   19.63649481768791    9.33456719323222
C         2.24917207811741   18.27408052332379    9.12790659033353
C         1.12634145173638   17.45843981737972    9.20444230871482
C        -0.10471560359080   18.02735880855922    9.49667046080468
C        -0.21205716755541   19.39144468326089    9.70488860806016
C         0.91007414346716   20.19792516128360    9.62411814075249
C         5.88428516989817   17.57343477707497    9.19797763842667
C         6.58266466848888   16.12935873167655    7.56744712283773
C         7.09990185245732   17.13884493655915    6.80802343049414
C         6.99702069710311   18.47635055069120    7.24265020759320
C         6.36745232012128   18.69327085523603    8.49679686884111
C         7.48095094238934   19.58089919429711    6.51625845990689
C         7.34225824876254   20.84554209355586    7.02018298372463
C         6.72116370040629   21.06041721979874    8.26312798193102
C         6.24208490163503   20.00856605812081    8.99278476141744
C         4.88703971543520   12.52482844488124   10.11680527646170
C         4.46749103333480   13.25552764460750   11.21788845531328
C         5.22536493960312   13.39423261565753   12.51390227574977
C         6.72152541822680   13.69972242048460   12.32708273552229
C         6.99693792783504   14.50614037010806   11.08013690220899
C         7.32632485297526   13.95483486368571    9.86308365379721
C         7.36453195693539   12.48188935053108    9.54138645788600
C         6.15564118319262   11.70040669177663   10.08433154126097
H         1.63796580282019   16.49614940845573    6.88202521317681
H         0.30142853241966   15.48577524238142    9.18777170648079
H         5.27118981895891   15.97103707382957    3.78815233651710
H         6.12471886094353   13.66943160224378    3.74373650827081
H         5.59814023972439   12.12713946174467    5.60682192219474
H         4.16520849631519   12.89761017623909    7.45344488179036
H         3.71439034359551   17.59309502588742    6.65058864478354
H         4.52917615686024   17.80785861676163    5.10118660858838
H         2.84943568330599   17.30107983068200    5.13558819068565
H         0.42810419510422   14.93306393101665   13.92042269509670
H         2.21080588672250   16.23130014135181   14.99628725162022
H         4.11458446880771   17.05623381740703   13.64457591246167
H         4.14829760599102   16.64026678592639   11.21274834030776
H        -0.19257200760236   13.50517968661781   12.13401903797031
H        -0.69824563916047   14.81125051237914   11.07871442075208
H         0.50801646988955   13.63997590204646   10.52141226138035
H         0.13881584684801   15.60032935676010    5.33728185959925
H        -1.06599882355672   13.68898215830963    4.36593067642820
H        -0.90396594905656   11.46196123122193    5.41400670466790
H         0.46858403659358   11.15520396384207    7.44018001747935
H         1.67461751922840   13.06305931928718    8.41152688211943
H         3.02121265391113   20.26070434627827    9.26509236735667
H         3.21522025754716   17.83967491242868    8.90767364217697
H        -0.98376885671937   17.40224130152838    9.55645579156561
H        -1.17409210263746   19.82466135681297    9.93082283803040
H         0.82512843772455   21.26120966065889    9.78624305981253
H         5.42425111411536   17.74150240694870   10.16431111432860
H         6.65322605880395   15.10325444080556    7.23323146224930
H         7.58464242008372   16.91391847511958    5.87107760801902
H         7.96091400738151   19.41137534161807    5.56433866265462
H         7.71347765899703   21.69348644662603    6.46550325907790
H         6.62832575878855   22.06829124010196    8.63743201188658
H         5.76737579369517   20.16510294421012    9.95029926498600
H         4.10616960938827   12.16545896709669    9.44800923744914
H         3.39618301367549   13.39148544727095   11.34475913128007
H         4.76142511522264   14.19800775991810   13.08969071895461
H         5.10161620623397   12.47297731329601   13.09196424904361
H         7.07414626135355   14.25954437198349   13.19450956120172
H         7.29884004419401   12.77594255769450   12.28466667172352
H         7.30070386456584   15.53845659884407   11.26273806685333
H         7.92829000442713   14.55646983303350    9.18218506889098
H         7.39626807052508   12.37627633406725    8.45346989221187
H         8.29238400427875   12.05218726007528    9.93210864650409
H         6.35935082400829   11.33188393537418   11.08996189596810
H         5.99436472739749   10.82761736469073    9.44958296223092

