14
CSD_code = JEWPEH | q = -1 | S = 0 | Stoichiometry = C4H3I3IrO3(1-) | MND = 6
Ir        4.06648779617542    6.59179263183228    9.00290387539810
I         4.14000202261566    7.70402402095614   11.52677972638421
I         1.44813953302453    7.31542945807635    8.27031477974419
I         4.75098368292845    5.10817929403163    6.78063165799286
C         4.58273791403554    8.22178584418727    8.17719156118562
C         3.24017349093140    5.06156842027364    9.73663215611491
C         6.02833858444167    6.15215387338666    9.48812213805965
C         6.34675780335549    4.87184913867126   10.23037957858257
O         4.77911829047645    9.21655338973953    7.66064088509704
O         2.62333630997341    4.18653992820346   10.13610936776955
O         6.88571196804514    6.92730659125581    9.17680931940406
H         5.49339334150099    4.22143204167118   10.39718277368133
H         6.77830400089941    5.15223253127589   11.19176702495385
H         7.10231526159650    4.33625283643863    9.65503515563197

