104
CSD_code = JEWTIP | q = 0 | S = 0 | Stoichiometry = C39H61FeN3 | MND = 4
Fe        6.15977525284644   10.39227242511258    8.80800255452950
N         7.37077360137130   10.01071607084698    7.17889393937723
N         7.53980818765456   11.02862051430998    9.72716545656723
N         6.23380786906226    8.49581090438825    9.32451558271172
C         9.08668723971980    8.73956107976668    5.93723638876740
H         8.90613555825407    9.45368768991383    5.13843094234569
H         8.98483186870330    7.73089480105980    5.54014335508607
H        10.11080196290725    8.85427565126215    6.28893944456602
C         7.40942201327312   10.98565173018636    6.16199065174927
C         5.12856041490186    8.07668714239585   10.09048345960931
C         5.15314251976715   12.07606750511730    8.46500056473240
H         4.69989436740978   11.85498952606541    7.48917271974477
H         4.46168829265953   11.68617319568284    9.26022837000866
C         8.51618435335776   11.13396864467366   10.34974045039187
C         8.12782468654744    8.94037649916449    7.09253740806652
C         8.46406228401640   11.90570812593075    6.03477095574571
C         4.06813297503188    7.40852807104172    9.44703097747260
C         5.23997542846282   13.58437058724932    8.60502889051704
C         9.72546737346839   11.24739033106088   11.15225649987405
C         8.11235571057673    7.87961462729208    8.01028647876990
H         8.86264388111999    7.11833678584835    7.85412161880453
C         8.43821939922836   12.82861849055801    4.99788901532128
H         9.24664896408092   13.53710548270634    4.89666042535317
C         2.97945161287849    6.98439265104679   10.19263907418965
H         2.16990811215734    6.46148245329765    9.70498404660776
C         5.98006976681582   14.16379388702047    7.39926878036862
H         6.94528419407409   13.68308633608799    7.29267718789580
H         6.12497236051916   15.23689853315887    7.51059233359520
H         5.41931283213845   13.98572686652111    6.48437929075816
C        10.92085850661845   10.74626305823082   10.32979959041999
H        11.09151302385222   11.38420729674000    9.46877439152067
H        10.73897710167886    9.73291537887759    9.97833555461314
H        11.81736165329000   10.74754419517146   10.94668950875223
C         7.18846592599863    7.63775130704665    9.01792099796354
C         7.40846164009585   12.85017477349564    4.08077768501280
H         7.41267594033899   13.56586129940141    3.27187150719378
C         2.90771799297443    7.22084598432869   11.55173086825503
H         2.05199661645800    6.88430120064159   12.11844869334527
C         5.97266160049257   13.96054783973966    9.89451558493256
H         6.96778627320744   13.52599048906847    9.89443380268684
H         5.43706944317033   13.58048263927631   10.76230733106105
H         6.05820234450050   15.04169536488721    9.98966099500532
C         9.57926398854159   10.37199146511266   12.40513518308113
H         8.74392711799308   10.71083439304065   13.01172787875410
H        10.48699104622102   10.43263709208640   13.00241462637843
H         9.41456299377235    9.33343115584101   12.12856211746371
C         7.27822644875422    6.33537252291957    9.77515325233625
H         7.50310220922844    6.53911235834575   10.82233126964319
H         8.05469010934126    5.69448979314373    9.36740462314125
H         6.32674735114063    5.80680182855805    9.74543407821141
C         6.37189603257934   11.94456949355636    4.20409058034393
H         5.57461976214178   11.96063959696126    3.47774440268680
C         3.93465823229899    7.89972881774717   12.17711283609839
H         3.86685564787837    8.09727886366829   13.23613927929599
C         3.82508069785673   14.18726930281411    8.65088074123073
H         3.26864641773960   13.92663258352322    7.75223648871845
H         3.87504685241693   15.27298199342141    8.71768013259342
H         3.27455656149256   13.81731294211153    9.51448550168257
C         9.93117828197289   12.71013287870995   11.57087142994742
H         9.08064178148443   13.06201233348391   12.15055753265551
H        10.03822117648420   13.35025362091688   10.69972515640773
H        10.82828931995350   12.79733662841988   12.18027885385636
C         6.34873950809674   11.02126871529921    5.23596818238365
C         5.05216319450587    8.31977881003236   11.47128693330628
C         9.63547845001530   11.92495187033295    6.98849722346151
H         9.51492401646310   11.09590485148177    7.69053430949926
C         4.07180162740778    7.18997336060008    7.95103318455358
H         4.99318630452064    7.61294185756573    7.53638686706793
C         9.65180539921780   13.23243036333862    7.78507917651779
H         8.80844703685110   13.26008417260439    8.46884524570257
H         9.59023669580599   14.09160034245510    7.12150096038710
H        10.57536598469249   13.31719379556958    8.35564171390982
C         2.88538862501292    7.92810985347187    7.32588939064315
H         2.90092469584443    7.81581739432637    6.24403516474474
H         2.93169758126389    8.98847096461241    7.57133683223095
H         1.94090257613026    7.53324027001594    7.69331945467242
C        10.96443671905871   11.76470608381342    6.24077644080491
H        10.92743540391318   10.93065433279266    5.54549020857554
H        11.77531890502594   11.58883350950320    6.94573051585915
H        11.20001016174870   12.66364076715163    5.67630459026958
C         4.02949272919277    5.70415036924158    7.58993722906489
H         4.88881025133046    5.18177417043990    8.00440860194921
H         4.04829248069598    5.58307805002202    6.50862372624263
H         3.12593452075663    5.23369189764170    7.97115440535560
C         5.21891738535054   10.02198998565553    5.34170787400053
H         5.13046174318968    9.73954377918546    6.40240813993157
C         6.15153408709299    9.07141486052960   12.18028873815494
H         7.01615515312367    9.11694091137942   11.51163587818954
C         5.56171229874554    8.76355474451805    4.53901971583667
H         6.44401927460070    8.27957209680737    4.94875724126789
H         5.75857657704627    9.02052348383161    3.49959336356417
H         4.73598406497714    8.05548085432608    4.56854853460935
C         5.68098370000705   10.50543163824226   12.43705500481828
H         5.50415220715193   11.00562657800477   11.48255692000837
H         6.43386952125798   11.06879446135873   12.98374040276967
H         4.75893521178190   10.50963539212495   13.01517441556821
C         3.87867274676625   10.59500221922662    4.88029691944250
H         3.70421445153224   11.57231176645394    5.32497821334857
H         3.06612714873910    9.93476277496206    5.17407950035469
H         3.84552887199049   10.69689646253569    3.79797255668477
C         6.56925202382864    8.38475708696916   13.48197523429754
H         6.78206314945421    7.33162638534303   13.30811517265009
H         5.78734952160391    8.45429843130262   14.23396580871276
H         7.46330481923905    8.85293318487118   13.88725066975497

