101
CSD_code = JEWTEL | q = 0 | S = 0 | Stoichiometry = C38H59FeN3 | MND = 4
Fe        5.58706044408781    9.99331655119979    2.52488328244036
N         5.44843782067028    8.12260953193636    1.93382285022867
N         4.19169312350379   10.70317350706061    1.70555279104708
N         4.47246371724250    9.58530139246111    4.19680380937391
C         2.79447585333560    8.31270071803754    5.48737657738010
H         3.05304157692082    8.97743850325524    6.30714871679315
H         2.87345347871282    7.28191070546065    5.82862131723716
H         1.75790102825150    8.48948302661989    5.20452323551965
C         6.48774864394473    7.69624696747536    1.08387721525742
C         4.52739361079022   10.51312165964321    5.25547607897590
C         3.20469434737660   10.92396460957438    1.13264632913540
C         6.50898166782685   11.71582495361868    2.90598747341434
H         7.00698632547580   11.62596277646695    3.87767082759418
H         7.23366914625731   11.37349406106773    2.12182890062514
C         3.69175923362266    8.53237304361154    4.28709622129049
C         6.49251973203127    8.00251677137665   -0.28651711798711
C         3.50938324565663   11.45066902217574    5.49470713884609
C         1.97583544724997   11.16517156393034    0.39051392858373
C         6.18186468767800   13.18113632016941    2.66651254913557
H         5.30628284079742   13.24442438205856    2.00906161110619
C         3.62587324382490    7.50947454288578    3.32895326976689
H         2.86242205268445    6.76401648173366    3.49725620837616
C         7.54214589673211    7.56441092141135   -1.07997489716038
H         7.55528758430508    7.80915318406918   -2.13112421198905
C         3.62126634055466   12.31169748795389    6.57851372018043
H         2.83957161801671   13.03202344589502    6.76800324322509
C         0.78416540008064   10.68439063067294    1.23042445585821
H         0.90931831444075    9.63744557242485    1.49814462766932
H        -0.13577196466501   10.79244456055639    0.65910888637518
H         0.69654288899925   11.26456750913775    2.14323048503464
C         5.86104761324619   13.88227827078570    3.98398583947209
H         5.48742351913094   14.89012044951504    3.81008468702653
H         6.75670011182207   13.95220473307263    4.59922590366970
H         5.11663215608169   13.31968107682781    4.53683610346964
C         4.48346641550125    7.28236439520272    2.26134971234881
C         8.57009216625172    6.80835481634738   -0.55231004225333
H         9.37056448014879    6.45776013347240   -1.18712816616757
C         4.70613836142515   12.25838414421642    7.42895516283375
H         4.76874336916849   12.92552229019041    8.27601231749332
C         1.84853120515379   12.66230371258969    0.07630595514280
H         1.82595355232793   13.24800706734815    0.99085881649570
H         0.93203362303549   12.84695861914965   -0.48033333735887
H         2.69270282337312   12.99698686131494   -0.52257959630498
C         7.33658831756233   13.90762439257698    1.96524674105327
H         7.53003647104628   13.47144402582521    0.98666108503212
H         8.24549983829822   13.83657138752901    2.56081795275794
H         7.09987421361373   14.96177090760302    1.82873104322687
C         4.31007047256431    6.01495366014952    1.46075797932016
H         5.23237814595115    5.43595865969081    1.45346708873941
H         4.07791827343898    6.26709544720811    0.42572629983502
H         3.50866885545688    5.40116688456814    1.86218912139671
C         8.57265013076453    6.51566659305984    0.79755657433130
H         9.38559763821697    5.93634608930145    1.20999922685009
C         5.71565355675978   11.34643452441936    7.18451784298035
H         6.56129927174645   11.31096385809337    7.85302563156604
C         2.01728101464362   10.36736219394681   -0.92083011917058
H         2.13369701481492    9.30541756056611   -0.71831220709364
H         2.84408779509087   10.69860159741562   -1.54334884387272
H         1.08988348799803   10.51693631488576   -1.47035500437318
C         7.55433572166497    6.95494941798082    1.62894668173286
C         5.65074566491808   10.48235673272875    6.10438141477620
C         5.39588425848974    8.84713512529971   -0.88708803933218
H         4.56693256098894    8.88447098976977   -0.17403580660882
C         2.30080635523377   11.56767716413283    4.59728581586891
H         2.35252570541971   10.76969368869302    3.85205709902174
C         5.92333291801635   10.27310009950807   -1.07025919915960
H         6.17278893160970   10.69839526366988   -0.09498584481707
H         5.17285714348730   10.90702818749326   -1.53692802117884
H         6.81477676069438   10.27487708898027   -1.69460206663768
C         2.33017426279066   12.91190473997402    3.86501309794622
H         3.16482369633674   12.93296124806437    3.17087099816228
H         2.44123809089780   13.73301897916125    4.56908762810858
H         1.40210411001584   13.06595242951122    3.31706312541950
C         4.88338167961145    8.27428900252114   -2.20966989897973
H         4.63487544019893    7.22038915680854   -2.09965829199830
H         5.62752155938693    8.36878958537104   -2.99650186049243
H         3.99049330330002    8.80528481501090   -2.53125922432777
C         0.99499201675272   11.43566376142084    5.38868956863696
H         1.01555655732149   10.56492522124958    6.03856522498055
H         0.15028809362486   11.33717018085759    4.70888957363499
H         0.82667522394197   12.31418104672416    6.00685715107741
C         7.64114898501408    6.68110526407278    3.11330222924864
H         6.76207101415791    7.11380733041916    3.60279665787002
C         6.75322222169566    9.47810224996025    5.85631190346160
H         6.76443227009338    9.26782003782691    4.77352544417875
C         8.88796979834311    7.36653650821042    3.67871714709234
H         8.94808770712737    7.21308628268308    4.75393090936078
H         8.85150755874119    8.43640463258556    3.47643792524484
H         9.79277780563874    6.96441481448473    3.22853318301757
C         6.44073494484226    8.17538830646483    6.59822965586392
H         5.52092763826903    7.73501042221827    6.22286424044865
H         6.32295746470842    8.36805191915091    7.66329363724585
H         7.24607972812163    7.45606507506882    6.46549442816040
C         7.66582478047796    5.18336268629429    3.42266688765753
H         7.70265931016737    5.02615565037618    4.49888246240611
H         8.53530304995219    4.70485580366647    2.97761132161433
H         6.77256804487509    4.69507844457442    3.03940202057895
C         8.13210350006590   10.00114912722554    6.25787451358007
H         8.29477265932644   10.99996110892029    5.85922507345425
H         8.90938627930873    9.34659756765937    5.87080385880624
H         8.24007394335452   10.03772777240217    7.33953408308041

