31
CSD_code = JEXBAS | q = 0 | S = 0 | Stoichiometry = C13H8ClN2O5ReS | MND = 6
Re        1.77209806803781    0.73717973590163   13.15293934135184
S         0.53949867539768    1.59474472965300   17.45613060035823
Cl        2.07005092509289   -1.19496320471742   14.49409316156309
C        -2.22297018132618    1.52108927326966   17.27917192205525
O        -3.30992217714465    1.47072094057738   16.76157159454886
N         0.60191045142399    1.32958151031982   14.90602106395836
N         3.25434532698944    1.47481828281481   14.53914495687794
C         1.50998346103373    2.42730188418829   12.23088165982109
O         3.87534752469944   -0.35165046207646   11.17268776599883
O        -2.04825067131315    1.65236236775437   18.60336014872514
H        -2.90642292208790    1.68518308012612   19.05370995652395
O        -0.44663708797178   -0.84937641062367   11.70151558986910
O         1.35250439429477    3.44266123029437   11.71756677456977
C        -0.94738218225826    1.46464351731040   16.57586339124802
C        -0.71074721830370    1.33024356910717   15.22260109548760
C         3.67533857742959    1.70841592111775   16.89451505001805
H         3.26844227479857    1.75054615177395   17.89301592642153
C        -1.74903889492750    1.19474881054438   14.17366820080232
H        -2.69956023167527    1.57901729146611   14.53218434929967
H        -1.87908758644084    0.14099575685042   13.92610172840879
H        -1.43407746519065    1.71805596033521   13.27149114616350
C         2.81370426247696    1.54465608525258   15.81043761195714
C         1.38234682309805    1.45989073364024   15.96101072041847
C         5.03275910450508    1.79488024924857   16.65948752246596
H         5.72630337875255    1.90508393602145   17.47849873112814
C         0.35851306379996   -0.20329930229499   12.19192727831980
C         5.48283523083730    1.73606658044708   15.34669910946401
H         6.53349459794791    1.80092974532407   15.11510935278196
C         4.56117311142599    1.57836817624381   14.32610769417997
H         4.88375470535511    1.52779513930037   13.29432873219720
C         3.06869266124981    0.08280872082187   11.85715782301457

