110
CSD_code = JEXDUM | q = 1 | S = 0 | Stoichiometry = C54H51ClP3Ru(1+) | MND = 9
Ru        4.54700109934206    1.41516635834413    3.70068265203275
P         5.07452350468648    2.27292025666402    5.78849535846329
P         5.29914673512613    3.30627352956125    8.89454414554489
P         4.66485411289296    3.43299919970974    2.58412289584794
Cl        2.35705196136239    2.10532224442390    4.20595410465997
C         6.26566033904657   -0.04505835548609    2.85077413416085
C         5.33481626385180    0.30446421819073    1.84585488123109
H         5.70304524215806    0.69253064130719    0.89944761414298
C         3.96833636275088   -0.02547734103333    1.96075328673861
H         3.32187357103940    0.13006338923030    1.10652227546328
C         3.47646585193894   -0.67034609431083    3.11198594133329
C         4.37284756439127   -0.88111105817716    4.17826192514793
H         4.03100960312794   -1.39854857437904    5.06816861185485
C         5.74354506600837   -0.57362412688202    4.04984086952410
H         6.42061393728111   -0.89762170096301    4.83501312773521
C         7.73862220565947   -0.02713207468618    2.57055363287391
H         8.02640160228772   -1.00811334630167    2.18619926411128
H         8.32573845888247    0.16171150410119    3.46629348684442
H         7.99213705316775    0.71498243738067    1.81660458063020
C         2.09100187383160   -1.25999173740512    3.19507169986676
H         1.75144425872339   -1.18218999667860    4.23435597694547
C         2.21225212624588   -2.74764471907068    2.83292296194903
H         2.56635650691604   -2.86120627503418    1.80996136099808
H         1.23916018158324   -3.22388260230601    2.91407364602272
H         2.90397707997633   -3.26083297576619    3.49772386313956
C         1.05611322419475   -0.58020271624161    2.30306684436644
H         1.00628988520091    0.48361863971930    2.51951548541031
H         0.07763514497253   -1.01031075246853    2.49970257664078
H         1.27916355912778   -0.72608650864236    1.24842002076616
C         3.98234846550711    3.54791916919096    6.46621182366410
H         3.23200030911714    3.93448949181234    5.78600284481858
C         4.04148327160611    3.94020266835376    7.73679997376331
H         3.36636487693254    4.70844413640236    8.10369482236563
C         4.84942158938433    0.90251401036653    6.96904070139435
C         5.86495998415318    0.32220915010723    7.72091694207447
H         6.87154542505592    0.71100515199922    7.67269991479646
C         5.57568784734353   -0.73787350298766    8.56203356919433
H         6.36614738274737   -1.18584033066549    9.14515098776799
C         4.28092008986097   -1.21848251972425    8.66754318809854
H         4.06274902753224   -2.04097187423842    9.33106727636019
C         3.26428500950476   -0.63275381504275    7.93088869324869
H         2.25109586929062   -0.99460449244544    8.02191046303023
C         3.54614383373562    0.41898319583508    7.07945361473882
H         2.75669749850892    0.88004025076178    6.49796071648969
C         6.77490076484079    2.87556047670683    6.01651849651478
C         7.81970962066455    1.99015842045523    5.76309771795153
H         7.59257821752885    0.97183658026911    5.47892499905835
C         9.13452933341822    2.40075243832596    5.88019581203138
H         9.93751866215366    1.70148194495366    5.69712558231472
C         9.42077312314703    3.70879107195033    6.23486696441849
H        10.44627403147855    4.03178165416755    6.32643408928266
C         8.38753483695103    4.59932173047684    6.47431806169512
H         8.60704916089261    5.61831643425187    6.75413087023533
C         7.07181506355654    4.18774410535190    6.36548745526753
H         6.27152569503741    4.88377435319971    6.56538562974696
C         5.36356238466783    4.78056158787369    9.98423845841852
C         5.47991178459966    6.03702205822987    9.39421574648482
H         5.47199241672111    6.12760632836528    8.31588773735718
C         5.59527962353737    7.17057579892574   10.17602071199012
H         5.67504528604843    8.14078704453782    9.70790425091135
C         5.61222989187907    7.06236887539688   11.55670323729134
H         5.70213135009329    7.94745044715224   12.16771552708062
C         5.51762076778793    5.81470364044302   12.14933671674233
H         5.53413643861344    5.72486555120467   13.22517705099329
C         5.40119493418260    4.67759521322990   11.36996224755037
H         5.32421396368204    3.70942387017205   11.84307678259082
C         4.25693910782398    2.20390813870587    9.92215112771007
C         4.93112767135439    1.40296013464647   10.83978552790728
H         6.01055872909500    1.46201789841567   10.89990567236458
C         4.23170063518725    0.54237092749938   11.66444186772208
H         4.76059428693104   -0.06702054539534   12.38225426340554
C         2.85263799724022    0.46030127850580   11.56365906889771
H         2.30282195775562   -0.21144124046539   12.20537226733019
C         2.18055460689530    1.23854785840321   10.63665066336279
H         1.10581917282300    1.17159573154372   10.55348584529290
C         2.87580343172001    2.10874418248526    9.81560223145707
H         2.34092359348219    2.70718130214219    9.09289439833289
C         3.80554554550254    4.90314810337217    3.22767754894746
C         2.54917657324186    5.32406334366565    2.80966930602763
H         2.01882387963335    4.78785699363373    2.03846150798663
C         1.97689147107462    6.44816554881111    3.38146960123534
H         1.00090851886746    6.77267912606274    3.05432115725144
C         2.64755879410270    7.15540520307181    4.36478781091841
H         2.19416277805040    8.02993253926594    4.80561923346742
C         3.90521301986432    6.74307426868248    4.77786893065351
H         4.43470523282604    7.29870799477075    5.53757611236933
C         4.48181835176005    5.62211290529477    4.21351279571446
H         5.46639517341035    5.29112101518958    4.51836444470006
C         6.31811554005143    4.13463199319839    2.31725415737945
C         7.43594769596245    3.45678128737328    2.78023292167077
H         7.29472321658830    2.51687299235173    3.29681965150830
C         8.69976315100787    3.99253309600633    2.60606300188879
H         9.56540327630516    3.46379907352979    2.97573274371804
C         8.84727040407321    5.20958831308676    1.96293891708021
H         9.83097217900623    5.63123753251428    1.82472422592210
C         7.73186135233965    5.89250049966493    1.49902388706123
H         7.85006755856053    6.84256775373984    1.00055306397605
C         6.46783177441864    5.36349056410855    1.67653087031530
H         5.59427609103868    5.89611976777645    1.32611293922566
C         3.98911729050563    3.19185448014516    0.91230578748649
C         2.67237677346026    2.74472976562223    0.79661088125641
H         2.09272836609187    2.55978255539250    1.69154755257453
C         2.11801918227126    2.52750936688394   -0.45126306315279
H         1.09510694298375    2.19100167482713   -0.53321631873466
C         2.87582037973705    2.73731177518938   -1.59291888493396
H         2.44365938054808    2.56840543076668   -2.56722917790454
C         4.19153632810206    3.15591619597815   -1.48179071066953
H         4.78673551359513    3.30894766721580   -2.36938960557683
C         4.75219921195309    3.38069495617015   -0.23609500696412
H         5.78082565566830    3.70315877171660   -0.15916611834404

