64
CSD_code = JEXKAB | q = 0 | S = 0 | Stoichiometry = C24H21F9N3O6V | MND = 6
V         3.13715461803534    4.08821933816245   17.76373354783038
F         2.24474894155385    2.33887910774232   21.70275479475153
O         2.14330330790539    3.33559015829316   16.65817909392288
O         3.88808118205096    4.89819204168341   18.98850079200185
F         0.11213617278323    2.40644327908638   21.42306493603709
O         1.95453783903361    3.17517431314954   19.22245727522273
O         6.05183357606739    6.28499824657469   15.87764980325445
O         0.55790917732613    7.18183846974768   18.80722760164070
F        -0.50552755390140    2.87635471986014   16.20265601481291
O         4.26158929001700    0.10310687798657   17.95404085635664
N         4.45339750795917    4.88756954884223   16.54624884884890
N         1.83290098508679    5.72361672135569   17.75871375389491
N         4.16824801825589    2.30876089310682   17.87530172814351
F         5.64246766960642    7.28117155324140   20.86061289306276
F        -0.09042499298384    0.88851967469860   15.47136922549253
F         1.10069947710417    3.97140230281482   22.51151913861283
F         3.49731807835129    7.34747317455898   20.72306212736887
F         4.47034537564228    5.58914106299750   21.50321630380333
F         0.58553190303722    2.60969394546047   14.36966452213814
C         1.62146013402327    6.79175683158148   16.91831147243326
C         2.40230482439586    1.02928227131989   16.74576310086280
H         2.03900812679379    0.03978741155408   16.52879340146920
C         1.73477932057620    2.15878521836926   16.38324306823879
C         1.44464106004382    3.90469122303963   20.11379723588936
C         4.77043010483927    4.60482588319457   15.23553507799549
C         5.25553606146561    5.89410728393972   16.89612503411974
C         5.26257491337366    1.95100400023175   18.61767549366366
C         4.13990980797417    3.51476875715653   14.44570944438993
H         4.20200779097820    2.57387813659147   14.99311548803464
H         4.64923252756461    3.41205744456755   13.49110426700869
H         3.08782576095016    3.72870067258853   14.25933300577983
C         5.33224890781483    6.50697251468042   18.16353349280847
H         5.96789981861857    7.36296046175817   18.30786337883236
C         0.42381417288326    2.11306496459426   15.61766637770707
C         1.04555397700675    5.21439351229583   20.04664437222426
H         0.58064402123767    5.69356015660887   20.89161733403387
C         5.74529701796661    5.46868478473248   14.83352791838782
C         1.17173139594302    5.99267901200824   18.87241519658319
C         0.83597228977507    7.69044392920239   17.57088358049129
C         3.59072024355338    1.17634596631538   17.51068851899232
C         2.15988703416847    6.84125791731132   15.53277998606762
H         2.19660407715549    5.83018159418447   15.13159546511236
H         3.16406559699336    7.26624632468359   15.51995790761958
H         1.51911128857793    7.45653793176230   14.90546206040852
C         4.60778819247288    5.93800090148135   19.17842515941955
C         5.31489563677440    0.58593466429461   18.66290989774155
C         4.56309696361676    6.53915628306373   20.56611099749369
C         1.22175591951934    3.16813403530948   21.44409624842809
C         6.17962583778329    2.93443577988618   19.24891221355776
H         6.38312613561400    3.75664346770308   18.56244363919466
H         7.11323878529495    2.45156979030477   19.52675857905910
H         5.71666724511583    3.33998404071378   20.14933069676630
C         6.46304045865687    5.65478902713336   13.54672138186861
H         7.21821163491203    6.42552407889857   13.67064421992885
H         5.77262616295884    5.95839998244949   12.76134441173663
H         6.94568387365850    4.72928738335753   13.23843068126686
C         6.23737539162532   -0.37030063356165   19.32280437141170
H         6.15054839613742   -1.34314912377996   18.84654434426116
H         5.98258645351342   -0.47694064793976   20.37701272791864
H         7.26435051336676   -0.02023403047151   19.25200091710539
C         0.28612437040312    9.02019709693178   17.20793087219614
H        -0.74339513092271    9.09843391355225   17.55050491682070
H         0.32198011330922    9.15667748996735   16.13115315461719
H         0.86156219858257    9.81503686707567   17.68260563286388

