75
CSD_code = JEXPAG | q = 0 | S = 0 | Stoichiometry = C35H33MoN3O2S | MND = 6
Mo        0.26820949114632    2.28582392534191    6.40814410312710
S         1.12764944352337    4.58264886937921    6.11612970764698
O        -1.18797244413912    2.94315718215690    7.48568497836583
O        -0.13119505098387    0.57730710900731    7.27083992509331
N        -1.04067576372673    2.77048366437041    5.05810744184333
H        -0.98771834321091    2.71404137025762    4.04009222781689
N         1.40870256334813    2.54461242445813    8.22573358995572
N         1.37206330610744    1.56606786530917    5.27300390199224
C        -2.24855346321875    3.44995554704373    6.90604598088898
C        -3.34182738352896    4.00655681353944    7.52667164517431
H        -3.38577032414320    4.06005765972967    8.60501355111074
C        -4.40563082969698    4.51512509138693    6.75391700796539
C        -5.54113861336566    5.09487388168542    7.35626041665213
H        -5.58327466978257    5.14414893652672    8.43525841749402
C        -6.56899898502781    5.58641525350559    6.60020940040846
H        -7.43265380312921    6.02819664155948    7.07582186424067
C        -6.51083337677500    5.52183556212953    5.20010115369810
H        -7.32976640680781    5.91454549847173    4.61519400534235
C        -5.42487284347600    4.96631019740639    4.58281810521317
H        -5.37437792146467    4.91486946995054    3.50419821197669
C        -4.34749144663865    4.44968902155574    5.33171872220553
C        -3.22332611802179    3.87373715087125    4.70672386577713
H        -3.17922779987083    3.82444746835415    3.62660355918847
C        -2.19511464224910    3.38074731829985    5.47252404714334
C         2.42902295842142    4.50538337555719    7.26925937921703
C         3.43647613218743    5.46811792792443    7.27292829037564
H         3.38901930049104    6.25833116018388    6.54065114747590
C         4.47424506366244    5.39371366092030    8.17897178674806
H         5.25789490866288    6.13568564057170    8.16087622256139
C         4.52172951413948    4.35655482825642    9.10093177804710
H         5.34519873219941    4.28131590931355    9.79432199110424
C         3.51521742103685    3.41048499110617    9.12810863987294
H         3.57429655133187    2.58407824165615    9.82248527530089
C         2.45358877693905    3.47606807736618    8.22538310490762
C         0.99256906737388    2.10108867799474    9.37174081875437
H         1.42984369657090    2.52402750523416   10.28061803067532
C         0.02705624905960    1.07764925505882    9.57772457021126
C        -0.38163659779195    0.75855353291436   10.88526943273884
H         0.00943355100442    1.34264559940805   11.70656939891309
C        -1.26638280335411   -0.26275125479673   11.12397438098774
H        -1.58084676024506   -0.48745067324276   12.13118426227473
C        -1.75625124267014   -1.01795306464759   10.05586953800874
H        -2.44985899755255   -1.82352751815339   10.24663075288156
C        -1.36734302182215   -0.74626846003603    8.76678126764424
H        -1.74201232685415   -1.32059879862482    7.93183351711327
C        -0.48803913916142    0.31862529860598    8.48648648053940
C         2.04239328658440    0.89121233478406    4.33712608898626
C         1.40602261844111   -0.15083610814737    3.61931341839720
C         2.12759420317239   -0.83959388977896    2.66015721584989
H         1.65429331611132   -1.64148766023007    2.11327944409646
C         3.44693728640165   -0.52488246575220    2.38920952785147
H         3.98993900376337   -1.07359961735727    1.63404284864505
C         4.07408517479103    0.48921450593280    3.09423753340564
H         5.10622798899555    0.71844723026134    2.88048343400115
C         3.39640374162846    1.20564578405697    4.06118929210858
C        -0.02172143347935   -0.53047557435940    3.93222242803595
H        -0.43988211756845    0.22942126018037    4.60894331945977
C        -0.05028303881432   -1.87023279268466    4.67434868007889
H         0.41542687679982   -2.65318882742893    4.07936055087539
H        -1.07733546433385   -2.16006080688523    4.88688800649227
H         0.48843506957288   -1.77918448779245    5.61582186865439
C        -0.88777526061269   -0.58224311829643    2.67199926386936
H        -0.59564555980364   -1.40813136122312    2.02788520155237
H        -0.79272069079820    0.34271001073611    2.10723552446672
H        -1.93286729055078   -0.71729798606341    2.94263553144929
C         4.05472736276478    2.27463071337754    4.89947084105552
H         3.28991812918585    3.02701701485722    5.13070894077429
C         5.22017724960846    2.97891981179650    4.21090260991284
H         6.07651986275817    2.31654292052864    4.10712681074652
H         5.52751465367039    3.83513118918068    4.80757405507860
H         4.92627958812128    3.33302028040060    3.22593069859107
C         4.51683759674821    1.63953712647281    6.21654236017818
H         3.66459113680046    1.20353909871827    6.74040690642642
H         4.97792171773502    2.38809131900809    6.85725825441474
H         5.24165938381480    0.85190626085700    6.01778344785562

