69
CSD_code = JEXPIO | q = 0 | S = 0 | Stoichiometry = C31H31MoN3O2S | MND = 6
Mo        0.38446468437613   11.20448827568676    6.11224660910364
S        -0.51257238873089   13.50290528612721    6.02654359314784
O         0.82779315258882    9.43583673700508    6.83602781713327
O         1.85326207145823   11.78952800781349    7.22806681790105
N        -0.73540028674861   11.29190232704876    7.96022077449927
N         1.66701813160000   11.84532591254510    4.79852727288169
H         1.60336003900704   11.88244746149998    3.78019185893942
N        -0.70504733616014   10.55357488922919    4.92284351862244
C        -1.80047454876095   13.30686506133138    7.18048577843064
C        -2.82293988660861   14.24875324530024    7.27598179061463
H        -2.79683667386776   15.09869148692654    6.61272223934251
C        -3.84806373643831   14.08113499999051    8.18398549894130
H        -4.64312278897617   14.80919056218242    8.23784330616629
C        -3.86841528699738   12.96891284944743    9.01489590750932
H        -4.68238895641324   12.82161473941287    9.70792876843954
C        -2.84689921116705   12.04081702662183    8.95119849710451
H        -2.88504449588593   11.15745017401362    9.57315295050802
C        -1.79665283138775   12.20105408274175    8.04704083030500
C        -0.30139276255659   10.76329365241510    9.06311675581078
H        -0.73690266819942   11.10433944937439   10.00669184548166
C         0.67883489504975    9.74079810703175    9.17750703527899
C         1.19134387430299    9.07947118465542    8.02280653028602
C         2.07642106444930    7.99766592930908    8.20975173369960
H         2.44751402756926    7.49533691818238    7.32826822010854
C         2.47577363783234    7.62344004383127    9.46894120764664
H         3.17447551688273    6.80836357268434    9.58843101111488
C         1.99265441628947    8.28764035163745   10.59943976215932
H         2.31739127167519    7.98333499521215   11.58224432737214
C         1.10100473696695    9.31949878946504   10.45175653584757
H         0.71292776017166    9.83240716379589   11.32070250757608
C         2.87720903907425   12.38956018837323    6.67621526502238
C         2.80183121776059   12.45709929775663    5.26108125218045
C         3.81289971892073   13.07126139340729    4.53024991070816
H         3.74815761639155   13.12490802513253    3.45200628141789
C         4.89392262645070   13.60977146972303    5.20575004760548
H         5.68390539641233   14.09137249090226    4.64933373969536
C         4.97370770004460   13.53824676455856    6.59083466368674
H         5.82767159708408   13.96416211829105    7.09659060801555
C         3.97764911274233   12.93191321235674    7.33608354363248
H         4.03652361450354   12.87739650121128    8.41317107832321
C        -1.36954650304469    9.93830495770506    3.94223752136176
C        -0.72717104634205    8.94746294865310    3.15968237867130
C         0.70111134215220    8.55810516444556    3.45670321653089
H         1.14251390556157    9.33610326754833    4.09718816846156
C         1.54883200779280    8.43783519068820    2.18928087428743
H         2.59823942630714    8.32664783070180    2.45399918603273
H         1.44002157213537    9.32667970103031    1.57179396033663
H         1.25743640429452    7.57150991660010    1.60038872147160
C         0.71491437717104    7.24799926936782    4.25139813862178
H         0.21194876637404    6.45685033626752    3.69844751753629
H         0.20399537520595    7.39186991235894    5.20219185270536
H         1.73947284136178    6.93858233569709    4.44814766633050
C        -1.44707855108851    8.31131461017102    2.16388998381183
H        -0.97172953768924    7.54484244363593    1.57053214130614
C        -2.76897146059347    8.63403926828410    1.91445558161196
H        -3.31069656043102    8.12620149457628    1.13019260752095
C        -3.39958841255430    9.60296086765825    2.67707808839808
H        -4.43293846813904    9.83973211726395    2.47773084022245
C        -2.72430253442049   10.26416029614614    3.68452878855901
C        -3.38789693007040   11.27984671764936    4.58296938699472
H        -2.62687213498492   12.02123319559453    4.85830208597416
C        -4.55649426103891   12.01674189722895    3.93459583854202
H        -4.26573839188904   12.42342903552596    2.96915392091325
H        -4.86543139737470   12.83912534842134    4.57627078606470
H        -5.41110183237397   11.35813614668655    3.79744744491912
C        -3.84830178705019   10.56740670112890    5.86047759276653
H        -4.56869027065502    9.78877809784210    5.61538707292779
H        -4.31399811036256   11.27514444943405    6.54292085964588
H        -2.99440088895699   10.10608173745256    6.35943008521134

