39
CSD_code = JEXTIS | q = 0 | S = 0 | Stoichiometry = C12H16N6NiO2S2 | MND = 6
Ni        2.03686887371111    2.79536354195845    9.02041382522242
N         1.31809731569202    2.35684540887960    7.37714848088144
C         1.49456358385721    2.17866764634660    6.22561429559690
S         1.62109302370326    1.95074941860242    4.66361210665187
N         2.72232588843099    3.23358219985029   10.67959055038012
C         3.66263832958617    3.23467706949732   11.38996529162562
S         4.85927230681221    3.24904595672337   12.42765946902017
N         0.24449296235509    3.04648179531702    9.71496161888817
C        -0.68858197300484    2.09941114596512    9.58501369650392
H        -0.39225480703637    1.19632053309887    9.06811683354599
C        -1.97230163142655    2.23754135559370   10.06046476856239
H        -2.68731832294080    1.44004426261299    9.93015321050858
C        -2.34818777860109    3.42084281307472   10.71025635386792
C        -1.36089587930584    4.40719675905179   10.83684283532612
H        -1.58718873985461    5.34058148878031   11.32853857310958
C        -0.09998319598947    4.17775927011134   10.33625194955768
H         0.67307403148000    4.92769250178688   10.43833051160731
N        -3.59096001514882    3.58873520063564   11.21954445103121
H        -3.86558700148342    4.48300989737048   11.58385774349765
H        -4.30899947435731    2.91635606747051   11.01915993447341
N         3.80635697773327    2.55328587705543    8.33719086220109
C         4.69286402442966    3.55275725737192    8.34859716914742
H         4.35205469443145    4.49933548938707    8.74631520219426
C         5.98332523624300    3.41766330628950    7.89501332531357
H         6.65906615956514    4.25789258228810    7.93022070993363
C         6.41729386026383    2.18289054971696    7.39460510272356
C         5.47667162253777    1.14441580904520    7.38526919282235
H         5.74598587233839    0.17029278210108    7.00783356952410
C         4.20547551187341    1.37267921515529    7.85638038709612
H         3.47097402795024    0.57851923088648    7.84954102405069
N         7.66992208126141    2.01257941884800    6.91275127132954
H         8.35610057228339    2.73420004224423    7.04117299392691
H         7.98778715055293    1.09374214777540    6.66227560724385
O         1.95618726970753    5.11920918636845    8.03219178634587
H         2.37890965367298    4.91944200129612    7.19082571468001
H         1.01379337536524    5.17643651748415    7.84815248224312
O         2.08215924016147    0.47377056827286   10.01298123353250
H         2.96855911106763    0.51037273649628   10.38694963855583
H         1.47724606207352    0.59811094918410   10.75043622727512

