46
CSD_code = JEXTUB | q = 0 | S = 0 | Stoichiometry = C21H19Cl2N3Zn | MND = 5
Zn        1.98591557977838    5.69103410820656    7.22950835548828
Cl        0.97584522552023    3.90706261321067    6.43172371217717
Cl        1.19812797281504    7.21888543463988    8.68660653149427
N         1.86254207695122    7.04027813266136    5.43331470151367
N         3.81807690343396    6.76725933162678    7.13558342434810
N         3.39348867208183    4.71800155352640    8.69046326843170
C         3.82918773375609    7.86141903372669    6.38825279144543
C         4.77598781893359    8.86390428092173    6.60470452593539
C         5.69059721488943    8.69648826513641    7.63122312659895
C         5.63312921396232    7.56394849534642    8.42643180116515
C         4.65730568534179    6.60553460120543    8.14815919275050
C         2.74058660533957    7.96218789158501    5.40232759167895
C         2.74209095861027    9.12028841541955    4.45199436649552
C         0.70164394429485    7.03044523411442    4.66824568464397
C        -0.22147655273709    8.07341912745764    4.75149320568336
C        -1.41103484258811    7.99641071138283    4.05239068701994
C        -1.68077227470654    6.89983146764000    3.25082434109149
C        -0.76353374234615    5.86378179974752    3.16826278607587
C         0.41817924178934    5.91565036529519    3.88050643549851
C         4.42269427020498    5.41134528228929    8.97651295770793
C         5.39181975589524    5.10307416153182   10.07655471269750
C         2.94261604575277    3.63222556561707    9.43278069247654
C         2.61722341772399    3.77107324514134   10.78248565861925
C         2.08337169467313    2.70084282694107   11.47483573041904
C         1.89205459525224    1.48424649815198   10.84154609943707
C         2.21544449034072    1.34652834784020    9.50066670724976
C         2.72652654902434    2.41422209670352    8.78983775405140
H         4.78833070019140    9.75938704985729    6.00598781638267
H         6.43168026449734    9.45748745781618    7.82557321711896
H         6.31523482125752    7.44354268262045    9.25150293343665
H         3.72068872601750    9.22033460204520    3.98577465103522
H         2.51791092378135   10.04334283565020    4.98505185969467
H         1.99067554607974    8.97518901447890    3.67920460309323
H        -0.02310447381406    8.90522776245815    5.41126065911340
H        -2.13034442504600    8.79754669832015    4.13721616581483
H        -2.60996248389343    6.84607466262039    2.70368750769883
H        -0.97625909390841    5.00039128023384    2.55637624958106
H         1.12634432766076    5.10397375824982    3.83984231655821
H         6.41164324465603    5.13902041407697    9.69749530636059
H         5.19658334385632    4.11428811833696   10.48528584139107
H         5.29554365173857    5.83485336261270   10.87758783279381
H         2.72983573316751    4.73408077780328   11.25840489593256
H         1.81461299525919    2.82066578084278   12.51398898188930
H         1.47815396745610    0.65002796701632   11.38781335083472
H         2.05408613095271    0.40440681298186    8.99920358495782
H         2.95900784610308    2.32207007491929    7.74130538411661

