25
CSD_code = JEXXEQ | q = 0 | S = 0 | Stoichiometry = C12H8Cl2N2Pt | MND = 4
Pt        5.88350299638061    2.71800630233896    2.68371386687817
Cl        4.13197043056393    2.42619042032308    1.33360177375616
Cl        6.16073050556320    0.50764793627921    2.80408574890005
N         5.73755719750685    4.71786072423049    2.65420255616665
N         7.43837748956780    3.10928832554427    3.88782941770533
C         4.86869479554528    5.49155312456309    2.02143991111973
H         4.12077642511270    4.98023225766204    1.42919989538208
C         4.90916780350226    6.88226573349545    2.10854775439374
H         4.17616060440279    7.46254422432827    1.57145723215972
C         5.87615691827112    7.49927925344349    2.87262307889365
H         5.92524241379086    8.57447860822534    2.95381937962890
C         6.81037507587113    6.70303717541059    3.55424533189171
C         7.85657614127080    7.21690823792988    4.37421933755700
H         7.93747429266104    8.28839654588427    4.47949630727841
C         8.72854399825914    6.39235274962716    5.00651912289590
H         9.51676307927101    6.79487245358168    5.62492874682615
C         8.63677678195516    4.97594820363045    4.87866750888632
C         9.50542695939067    4.06743862181171    5.50429512501078
H        10.30594604327172    4.43231383989465    6.12965500539480
C         9.31294601293455    2.71767059904118    5.30249516295206
H         9.96106215614261    1.99202531442249    5.76714608673617
C         8.27121282592070    2.27365094157204    4.48960684891658
H         8.09628108215689    1.22012338382125    4.31350211165511
C         7.61076317187037    4.44124856821726    4.07367842786322
C         6.69691479882010    5.30546645472507    3.41092426115121

