76
CSD_code = JEYDAV | q = 0 | S = 0 | Stoichiometry = C29H43NiO2P | MND = 5
Ni       10.15768474955869    1.11363341429138   17.07867550137555
C        12.50685431117650    0.44862506388949   15.63269953052772
C        11.96567007867414   -0.98779993324373   16.05168523179206
H        12.04233915748761   -1.63649350156871   15.17968198308999
H        12.62382565443840   -1.35451202076983   16.84129999792120
C        10.57203627346278   -0.79401076151767   16.51404920426853
H         9.80328423046060   -0.80730702635152   15.73134996175738
C        10.17914002558858   -0.72031713730884   17.84338588905797
H        10.87933478254609   -0.96608651183115   18.63703299091965
C         8.94426223208918   -0.06903137006556   18.12751561486169
H         8.13858045867485   -0.22517334361085   17.40019177937700
C         8.46944728672841    0.17460473533035   19.48816555983053
C         7.09721444063459    0.18637084452686   19.75185257587459
H         6.39938784805995    0.00543972978023   18.94620830814547
C         6.62102401599225    0.41596942905137   21.02833058076638
H         5.55614655148104    0.41397160269792   21.21243302854949
C         7.50312517440242    0.64764847945727   22.07088363484043
H         7.13082618568819    0.83393238379064   23.06718120075969
C         8.86740750591559    0.63863712304822   21.82588940952104
H         9.56120800099684    0.81954510305503   22.63414502585502
C         9.34626600018164    0.40279108901725   20.55295119867663
H        10.41129791454494    0.41529375410212   20.37553293003768
C        11.01600178591990    4.08016493443202   18.28156259004979
H        10.67845784317239    5.02525907408069   18.71873422451230
C        11.45811630611298    3.12010759665099   19.39114797620800
H        10.63339106736058    2.95938029721452   20.09169720470041
H        11.69581133139638    2.15574827873694   18.91300605176271
C        12.68372781567857    3.63120920572222   20.13828219054857
H        12.98379094138738    2.90499102511695   20.89700831072806
H        12.43414989538972    4.56434198666915   20.65066708685306
C        13.82827862150893    3.87778312237920   19.16237242171211
H        14.70375677230441    4.25225628041576   19.69681091284215
H        14.10246295552784    2.93880902772873   18.67812360720125
C        13.39288098348742    4.87860987725891   18.09907961033814
H        13.14500555437937    5.83092374112773   18.57716909190973
H        14.21141395615288    5.05782147878232   17.40003166828736
C        12.17955721034363    4.35846724830531   17.33132388420207
H        12.44514947730775    3.43539156345663   16.81156720404765
H        11.88803248932987    5.10451249020503   16.58978666498430
C         9.47231462066126    3.91153246381223   15.73462924143978
H        10.51614644830223    3.88329911430716   15.39758736391049
C         8.93575629431835    5.32493328872596   15.54690198601185
H         9.47272909316399    6.02623451607944   16.18919431440137
H         7.87578742491839    5.36555308329007   15.80401601556195
C         9.10162556892197    5.72683374643442   14.08089781482870
H         8.71118151070749    6.73522866026524   13.92636523185632
H        10.16361015856929    5.73598065747694   13.82707229234908
C         8.37327364140565    4.74349246465451   13.16769681643684
H         7.30171890449467    4.77814994653150   13.38083844984567
H         8.51435434116000    5.03512010419231   12.12531792658869
C         8.88523645886204    3.32027065560469   13.38114630353002
H         9.94141093843970    3.26742253800404   13.11090615705466
H         8.33798459940796    2.62930647830314   12.73642217176017
C         8.71968790369065    2.91985220025428   14.84299076601260
H         7.65790071047079    2.89712334850887   15.09446735917407
H         9.13697592384997    1.91098306188065   15.01541253475761
C         8.11876845344796    3.66840406079660   18.48257462930726
H         8.25381631993658    3.07038723336772   19.39585041449120
C         7.95514104173658    5.12724247171710   18.90352731739753
H         8.84522932982642    5.48606879671222   19.42070983105112
H         7.79124206297084    5.75982585863585   18.03175224855443
C         6.75967735944469    5.25348748911218   19.84896617827428
H         6.94983007231880    4.66470627094057   20.74960263577647
H         6.64017652862087    6.29670351835489   20.14916323211269
C         5.48133800271749    4.75428352405886   19.18411942424868
H         5.25780906194335    5.37589054991220   18.31374004295122
H         4.64352658845162    4.83977819185367   19.87876785724440
C         5.65008647884525    3.30365975795534   18.74461566042029
H         5.81675254890475    2.67589235629093   19.62205406886202
H         4.74245537275563    2.95568291128307   18.24663968310305
C         6.84163547447891    3.17976354856774   17.80011948982819
H         6.64730918415502    3.78257102051200   16.91157403325960
H         6.97261067495788    2.14115403714630   17.48689626343486
O        11.78471765860900    1.42424741059762   16.02112075750772
O        13.53426745679352    0.54250590383425   15.00262046878956
P         9.60406790226040    3.19622038599394   17.44541117917617

