83
CSD_code = JEYFOJ | q = 1 | S = 0 | Stoichiometry = C39H36CuN4P2S(1+) | MND = 4
Cu        4.65964040223558    3.61075277163109    3.47248770484046
S         3.56171538879309    5.61683779395465    4.24984275039925
P         3.42078777898729    1.87469851380175    2.80574743519542
P         6.38964016198584    4.43636647914970    2.24271730722474
N         5.73478259765553    5.21967391947628    5.82023999227947
N         5.82169891218197    3.86986854187653    5.52415091145635
H         6.79029558241062    3.58221936739627    5.40403514648295
H         5.36953405927212    3.29609244571445    6.23582152527692
N         6.11584657110976    7.21624453592631    6.63260832051204
N         5.04740640552958    7.25437196221298    5.80891106567018
H         4.54685888264372    8.11389641084858    5.64741360610580
C         4.77731165513140    6.04660199600710    5.27756332454627
C         6.52676234951121    5.99334862393029    6.64529503726351
C         7.66945379667555    5.46210942769761    7.41284652394841
H         8.11226905372259    6.27308817030022    7.98189080894445
H         8.42205536058905    5.04439514306848    6.74476649830135
H         7.34275536347505    4.68242079993544    8.10088191153425
C         1.76173177695352    1.54346120739023    3.47427497547097
C         1.09437833021250    2.60544453760737    4.07902720122816
H         1.58064805220567    3.57074791214380    4.14639805487583
C        -0.18084073289171    2.42276679322958    4.58200468580713
H        -0.70026466614923    3.24755241004219    5.04610679658420
C        -0.78692652626515    1.18007723636309    4.49132332933371
H        -1.78103059619694    1.03562706650664    4.88599919384479
C        -0.11903770105729    0.11969251099061    3.89810863806259
H        -0.59357748517679   -0.84774994356605    3.83194670893659
C         1.15443465648866    0.29471854907559    3.38842954636621
H         1.67629324302304   -0.53227340816020    2.92838056705642
C         4.27034788378281    0.27296594299402    2.95498741269863
C         5.04100577634422    0.07740134424546    4.09805741579293
H         5.10219339087708    0.87593771853648    4.82899355139305
C         5.71514870156897   -1.11349361890658    4.29146889787537
H         6.31041039616747   -1.26251916406024    5.18004232904145
C         5.62611133261397   -2.11594470680955    3.33855635874662
H         6.15277589629299   -3.04647040394245    3.48501609654357
C         4.86316236342193   -1.92508067913846    2.19759754080429
H         4.79502385213032   -2.70784593288128    1.45728257221582
C         4.18501263366588   -0.73516355123709    2.00066201794458
H         3.59706512705532   -0.58568531709982    1.10594969981267
C         3.14121754192230    2.03179045210794    1.01665559464078
C         1.89217665073593    2.33027334360753    0.48531794618887
H         1.03260773754948    2.40836763269787    1.13603813633975
C         1.75380411645496    2.52002660789936   -0.87882513649279
H         0.78157644259903    2.74482294101705   -1.29083357997253
C         2.85395450091660    2.41899520855967   -1.71332886064454
H         2.73968403651007    2.56169210664257   -2.77687935674625
C         4.10386241675534    2.13607658882571   -1.18428066890789
H         4.96378948406491    2.06173359038511   -1.83270741090218
C         4.25123509255363    1.95509776720522    0.17632962107804
H         5.22725426131622    1.74316754465098    0.59537525656242
C         7.82616637015762    3.37520633630305    1.90317770766172
C         7.66944284268788    2.01420525065634    2.15049691841268
H         6.72929772320156    1.65561381990768    2.55588669712416
C         8.70226015857215    1.13337482656242    1.88678899868199
H         8.57132187412418    0.07842592005640    2.07632404752242
C         9.90132859191267    1.61167848080833    1.38332393657146
H        10.71024762332457    0.92801909379162    1.17651361481391
C        10.06806733640167    2.96864254268529    1.15083364237088
H        11.00622973751648    3.33827135312140    0.76505824259638
C         9.03705415971263    3.85366712859875    1.40898370989204
H         9.17162469168449    4.91311486871051    1.23824000218177
C         5.73503263161150    4.86334299218480    0.59868178917917
C         6.48622518849234    4.80490110984785   -0.56904432097162
H         7.52075192742361    4.49537765767598   -0.53820731503609
C         5.89891157303698    5.13516889291925   -1.77747669284420
H         6.48367448458049    5.09154114580608   -2.68411464735897
C         4.56913338064088    5.51984705695503   -1.82887329688377
H         4.11872918675540    5.77671856086941   -2.77532745008376
C         3.81510963276051    5.56947496021894   -0.66767072991623
H         2.77658471877243    5.86119078915320   -0.70472654886021
C         4.39332855125038    5.23576962863098    0.54168204312759
H         3.80402178690419    5.25920612501003    1.45066019485820
C         7.13297229553639    5.99402798511548    2.82124231077167
C         6.54157549398734    7.21577995293594    2.51504808262453
H         5.71277924002070    7.25143943681829    1.82179969848972
C         7.02038280210949    8.37840778854863    3.09241825585365
H         6.56501017181535    9.32524538800825    2.84423774335378
C         8.08030340640611    8.33144890561744    3.98320194402433
H         8.45142691801267    9.23936400411137    4.43179455855758
C         8.66583770023615    7.11555568584015    4.29939895440164
H         9.49521957181665    7.08047592467924    4.98994644890884
C         8.18805645047065    5.94964096655135    3.73164499081030
H         8.64504946996824    4.99645823084639    3.97086146758830

