121
CSD_code = JEYFUP | q = 0 | S = 0 | Stoichiometry = C48H58N6O8Zn | MND = 6
Zn        5.24436963540329    9.14830670272886    6.73571157265430
N         0.50795396539904    7.54769717813818   -0.12925822890119
N         6.19958226107014   10.48752924781299    5.60975214520441
N         3.76834303775948   10.49048063011395    7.37806991602705
H         4.26438681796811   10.84489215839990    8.22330843285723
O         4.14668668316185    8.77141928949823    4.90005757046344
O         5.14332937572380    6.97201662331741    4.03939824878270
O         1.35969506259763    1.33873178134715    0.60840553049801
O        -0.08278642096584    1.34267621692196   -1.09033911093632
H         0.02793240273978    0.38438551292810   -0.99580490571155
C         1.41196567308800    7.81619390959520    0.87520217387775
C         1.83919953057803    9.03665786082517    1.37964338377223
H         1.47948995444381    9.97348115578433    0.98103794547261
C         2.75138019230669    9.02226432513382    2.41572593165238
H         3.10535564698993    9.95634703591625    2.82602917045059
C         3.24873962149239    7.82658215421701    2.93697301196554
C         2.84104856912756    6.60652286785135    2.42293818479807
H         3.24744929542085    5.69039137624330    2.82175142712993
C         1.91160398520840    6.59835248348319    1.39463615087506
C         1.27780094743955    5.55009438210434    0.64328247428551
C         1.35586030907328    4.17102115804230    0.67986335172779
H         1.99212682287044    3.65642235774356    1.38269833649381
C         0.59071205154801    3.43300115611499   -0.21946198211737
C        -0.24157810331944    4.07714297804025   -1.14710956084675
H        -0.81735726922854    3.47492447002066   -1.83175254147456
C        -0.33093095828793    5.45038888605484   -1.19625539538944
H        -0.97350701864798    5.92933988564601   -1.91955785492116
C         0.42780884490419    6.19190728221569   -0.29587629625438
C         4.26759714975263    7.84743330656354    4.05781764052975
C         0.68025404097341    1.96650585256554   -0.16910923270463
C        -0.15763671259761    8.53473221645798   -0.93680487735079
H        -0.34393611258820    9.41744066512539   -0.31922879571557
H        -1.12385896339871    8.13193437387290   -1.25203557949509
C         0.67633779964570    8.91605150816446   -2.15934301290475
H         1.63647772041611    9.32053223153925   -1.84771952552229
H         0.15562222284568    9.66400045590477   -2.75123857721422
H         0.85690749598008    8.04100751871202   -2.77927553108840
C         2.69559514311600    9.60861683549627    7.81487094443192
H         1.94171547613324   10.13004433867289    8.41992216801195
H         2.21783769558563    9.17058538424615    6.93631099111617
C         7.18195744634850    9.82115260442633    4.83259314939237
H         7.98032447578270   10.51910768474190    4.53856571601110
H         6.75043585979219    9.41507912589001    3.90167791501075
C         5.44281038518943   11.52641878250681    5.00411475835379
H         4.70602346560868   11.05653383683976    4.33054395122860
C         4.69149387068420   12.32052605934776    6.08455671134601
H         4.44179968375466   13.30219011932624    5.67913096263685
H         5.37078257729348   12.46528318738387    6.92581025251266
C         3.39103353752267   11.69544941627272    6.63118200065517
C         6.27890852776404   12.48333646463569    4.13344661332249
H         7.06619702812850   12.93370083456452    4.73358463309853
H         5.64250187701374   13.27370686397597    3.74439678435343
H         6.72506900657037   11.96520866609964    3.28895418318859
C         2.40730331556455   11.36653048032700    5.50790601290835
H         2.70029580926363   10.44258638304416    5.02035830386050
H         2.38805340519075   12.17317961889375    4.77861156004593
H         1.40081023983497   11.24418525941258    5.90104710564377
C         2.76150954196314   12.72277069261482    7.58747839168743
H         1.83641551880547   12.34165670886743    8.01327989186100
H         2.53162070101174   13.64488388491213    7.05938308028388
H         3.45030597953249   12.94555436002917    8.39867630216221
N         9.98242156323525   10.75027040215615   13.59916580374912
N         4.28923119144728    7.80914907154163    7.86182385546828
N         6.72043571984950    7.80615749324539    6.09338642958541
H         6.22448743813108    7.45183271655836    5.24805386313630
O         6.34215387728271    9.52516369877028    8.57129278950267
O         5.34590650946301   11.32495152471025    9.43163321689793
O         9.13023973843571   16.95902882480347   12.86021968627472
O        10.57336721354991   16.95554339686495   14.55841987905084
H        10.46264541344262   17.91380927043297   14.46364562532861
C         9.07811102432697   10.48148923988049   12.59505361373240
C         8.65075229233146    9.26088241234603   12.09106469661815
H         9.01060581004871    8.32417342106357   12.48980299914552
C         7.73824950120957    9.27498191196152   11.05526427504208
H         7.38417997261130    8.34078467979132   10.64530523638107
C         7.24070437285983   10.47051962378615   10.53385258904144
C         7.64854382345119   11.69072716137378   11.04742603905828
H         7.24198177857849   12.60673826212910   10.64850792566824
C         8.57829103744787   11.69918651560295   12.07545121674844
C         9.21228599376475   12.74765591767901   12.82634608937045
C         9.13418315805420   14.12671625044028   12.78942721170799
H         8.49770139358391   14.64111864801805   12.08664064679693
C         9.89957235885959   14.86498568851155   13.68834236045645
C        10.73217099405893   14.22110374267792   14.61589237519285
H        11.30809464112478   14.82351330298661   15.30024552011177
C        10.82157209556238   12.84787318051229   14.66536766367087
H        11.46435465319028   12.36912437810733   15.38862051204216
C        10.06258445675616   12.10610499544782   13.76540543486245
C         6.22144733663151   10.44932249452309    9.41337581182143
C         9.80988482840687   16.33146508612375   13.63772665104910
C        10.64831611601776    9.76346809200842   14.40674573325964
H        10.83435379583996    8.88057342205680   13.78935888726581
H        11.61467175601628   10.16634514522241   14.72146593507536
C         9.81482719445354    9.38252418066346   15.62973124744053
H         8.85455141887871    8.97797505495706   15.31861501775388
H        10.33576606076766    8.63473279691078   16.22162927037942
H         9.63453186688489   10.25775046478277   16.24948593600594
C         7.79323434221099    8.68805275940829    5.65678007179272
H         8.54718356979214    8.16667442317732    5.05177237001990
H         8.27089727394619    9.12601682298062    6.53542585834770
C         3.30693543637594    8.47556308342704    8.63907439000957
H         2.50859035863966    7.77763705193216    8.93324917049181
H         3.73855249324798    8.88174388887439    9.56990504171766
C         5.04607636604507    6.77028135323284    8.46742775317060
H         5.78301123303472    7.24018102175522    9.14083402743842
C         5.79718136321694    5.97613771314311    7.38686194447365
H         6.04679984650386    4.99442587133753    7.79221612509836
H         5.11778581510886    5.83151073673194    6.54566953710937
C         7.09766765689841    6.60111029483841    6.84018080370958
C         4.21012098089216    5.81343190922891    9.33830725974778
H         3.42266729492612    5.36309106355778    8.73836769518521
H         4.84656964277780    5.02303640184028    9.72724919100754
H         3.76417938362511    6.33161757073877   10.18288117206728
C         8.08153203368498    6.92982621922875    7.96340440370994
H         7.78866499757236    7.85374439527075    8.45107366745042
H         8.10075951947287    6.12309947877807    8.69261325804766
H         9.08800664909178    7.05211647020101    7.57019869312136
C         7.72700667727624    5.57378101307258    5.88377233941326
H         8.65205991671387    5.95487265585948    5.45786205848384
H         7.95691929951557    4.65163148284922    6.41179661043087
H         7.03809332891589    5.35107706191088    5.07265053919843

