77
CSD_code = JEYHON | q = 0 | S = 0 | Stoichiometry = C32H36FeN6O2 | MND = 6
C         2.25887121345704    8.82225778279813   -0.62114107953250
C         3.40114498724773    9.42264608174727   -0.07361213336746
H         3.62036445061519    9.26088317064813    0.97034865044088
C         4.21441274736180   10.20780276457725   -0.86329097134474
H         5.09193932791810   10.66917294958045   -0.43252883744765
C         3.91690746080524   10.40857498920555   -2.20304352140089
H         4.56048680885061   11.02263971673342   -2.81545055055238
C         2.78535361297414    9.82145587239779   -2.74992539600603
H         2.54580364680139    9.97944743656045   -3.79174752792663
C         1.96031471552577    9.03754971932957   -1.97120119648764
H         1.07296868824969    8.57961933714647   -2.37897059397802
C         0.78547090376737    6.51885775497892    3.06645080005446
C         1.94842109375777    6.53817435259918    3.84715396326311
H         2.85093904383649    6.95009812454734    3.42174331545137
C         1.92559187798916    6.04233108168699    5.13396279073829
H         2.82779546896406    6.05973425353724    5.72913718548093
C         0.75749721874621    5.52053010001839    5.66947287940135
H         0.74864605941911    5.13059380156832    6.67640370481086
C        -0.40225557433524    5.51249445689192    4.90849657349461
H        -1.31902441113272    5.12415557081608    5.33048631967517
C        -0.39310115380961    6.00710146185497    3.62151103091683
H        -1.29127774782955    6.04309576658765    3.02416313745149
C         2.99243163442831    5.39858665510880   -0.35505376910534
H         3.29567178987459    5.66525173490987    0.66007346531798
H         3.17098805488109    6.25834365588509   -1.01190120066025
C         3.68879847125791    4.15045898790225   -0.88804221827301
H         3.87699966624765    3.44211475994508   -0.08028155236078
H         4.62957055466920    4.38718679738416   -1.37823861135107
C         2.63297793495071    3.59849521985298   -1.84255306154250
H         2.65593208064550    4.13779487297854   -2.78916487295652
H         2.74584482637914    2.53500891447350   -2.03910780674160
C         1.34872126878420    3.90910549137620   -1.07934683626232
H         0.48440035947178    4.07125173630346   -1.72630768627257
H         1.12566366881371    3.10330810238828   -0.36714695508830
Fe        0.00000000000317    6.69721044917165   -0.00000000000148
N         1.42321536788380    8.01904479690627    0.10963200035115
N         1.70155358968888    7.77995921567326    1.36529544416745
N         0.74536962879940    6.97557930595100    1.77450826956334
O         1.59204820671714    5.10533798261557   -0.34070292291879
C        -2.25887121344600    8.82225778279665    0.62114107952717
C        -3.40114498723266    9.42264608175194    0.07361213336183
H        -3.62036445059984    9.26088317065491   -0.97034865044700
C        -4.21441274734491   10.20780276458468    0.86329097133837
H        -5.09193932789964   10.66917294959060    0.43252883744124
C        -3.91690746078807   10.40857498921133    2.20304352139500
H        -4.56048680883413   11.02263971673865    2.81545055054623
C        -2.78535361295865    9.82145587240097    2.74992539599959
H        -2.54580364678486    9.97944743656279    3.79174752792029
C        -1.96031471551246    9.03754971932947    1.97120119648187
H        -1.07296868823631    8.57961933714697    2.37897059397193
C        -0.78547090378006    6.51885775496615   -3.06645080006413
C        -1.94842109376700    6.53817435259518   -3.84715396327712
H        -2.85093904384626    6.95009812454495   -3.42174331546865
C        -1.92559187799407    6.04233108168334   -5.13396279075227
H        -2.82779546897263    6.05973425352465   -5.72913718549449
C        -0.75749721875369    5.52053010000733   -5.66947287941092
H        -0.74864605942678    5.13059380154745   -6.67640370481715
C         0.40225557432479    5.51249445687163   -4.90849657349953
H         1.31902441112046    5.12415557078853   -5.33048631967609
C         0.39310115379541    6.00710146183599   -3.62151103092332
H         1.29127774781468    6.04309576656949   -3.02416313745556
C        -2.99243163442430    5.39858665511267    0.35505376909654
H        -3.29567178985898    5.66525173490836   -0.66007346533217
H        -3.17098805488172    6.25834365589293    1.01190120064393
C        -3.68879847126255    4.15045898791070    0.88804221826366
H        -3.87699966625126    3.44211475995222    0.08028155235290
H        -4.62957055467585    4.38718679739935    1.37823861133498
C        -2.63297793496647    3.59849521985764    1.84255306154341
H        -2.65593208067033    4.13779487298070    2.78916487295901
H        -2.74584482639956    2.53500891447801    2.03910780673854
C        -1.34872126879080    3.90910549137981    1.07934683627789
H        -0.48440035948754    4.07125173630896    1.72630768629925
H        -1.12566366881015    3.10330810238845    0.36714695511007
N        -1.42321536787608    8.01904479690011   -0.10963200035735
N        -1.70155358968771    7.77995921567020   -1.36529544417283
N        -0.74536962880697    6.97557930594224   -1.77450826957575
O        -1.59204820671376    5.10533798261614    0.34070292292614

