33
CSD_code = JEYPOS | q = 0 | S = 0 | Stoichiometry = C8H16N6NiS2 | MND = 4
Ni        9.65476834688080    4.87226268135034    6.29526275517566
S        10.89980112901191    5.59477600461077    7.91893161035716
S         7.79188546453484    5.80614213260742    6.90891862044547
N        11.31925565248470    4.77436287681109    5.22835692889734
N        12.48654640992114    4.70133566685846    5.93886673768951
N        13.45844735054805    4.96194553770842    7.99863726366527
N         8.53432225803030    3.53502964064676    5.37331558356817
N         7.25882922758625    3.92198586943500    5.06477923181510
N         5.61603838635652    5.47311506314203    5.45665666931941
C        11.42797091894468    4.86420216716165    3.95059962760018
C        10.21655384360532    5.00094021241055    3.09233577835125
C        12.76362662419084    4.87238953554582    3.27897934599571
C        12.37968382462762    5.03442859210395    7.18480942645202
C         8.85016919760593    2.31806456926567    5.10576864336369
C        10.19841119522556    1.79023086758150    5.46172755484392
C         7.87721358213625    1.37922696617511    4.46813638037998
C         6.84693320074418    4.96898008658357    5.70468436117424
H        13.40047774285925    5.43600311497261    8.88328272225169
H        14.36397094932419    4.86125870483535    7.57251699339111
H         4.96545288971727    4.89956512496084    4.94722320355131
H         5.24891264580685    6.13552831981323    6.11784567319056
H        10.36424608962909    5.80881956157508    2.37781248842541
H         9.33644063178696    5.22511018432466    3.69814583999879
H        10.04035357851835    4.08250689964918    2.53173327694782
H        13.44585243520705    4.21635991026418    3.81512148265181
H        13.18382989426395    5.87773829657012    3.31265969080294
H        12.67469538863695    4.56594399601667    2.24041620434370
H        10.72545423378345    2.48804069385986    6.11621530830016
H        10.79340806136647    1.62266598895114    4.56361592259348
H        10.09291545804454    0.83797438837871    5.97880907275845
H         8.39775612534746    0.56938146440942    3.96430191062487
H         7.24891894879659    1.92521793912716    3.76781714782641
H         7.22395831447756    0.95426694229162    5.23041654324926

