44
CSD_code = JEYQAG | q = 0 | S = 0 | Stoichiometry = C16H17BrCoN5O4 | MND = 6
Co       -0.48269379342255    3.41832304316241    5.17663137756693
Br        2.72155145451558    3.58028950905073    8.17008519380347
O         1.40193522898200    5.47321847854700    4.99012016350600
O        -2.28181066684036    2.87691640616389    7.39263254725098
H        -2.47855800653046    2.16873180179991    6.66583476606649
O        -2.49265655550243    1.45213100822414    5.29190771209748
O         1.33130140586843    3.93606888650619    2.97685595109260
H         1.55039512137864    4.62757094924314    3.71975253918462
N         0.53585959358744    4.89592141643971    5.73135722765520
N        -1.27635195560542    3.62004381237661    6.87348050927118
N        -1.53113580572545    1.95488022585984    4.61045503288615
N         0.32372857125863    3.19953024549693    3.49174662378486
N        -1.89753268198513    4.72875025840867    4.35807896239029
C         0.21756163873677    5.34401918795416    6.90936885917308
H         0.70556628753766    6.20311201381148    7.34798914698144
C        -0.80948820100939    4.60702158474401    7.55620801562091
H        -1.18485110123921    4.84945251894893    8.54201538195613
C        -1.24985512125706    1.54654884601837    3.40819772354586
H        -1.79241060869423    0.74165283556775    2.93076614163382
C        -0.18816697851631    2.25397581396424    2.78287045674426
H         0.16923427209249    2.02795568123592    1.78652407531330
C        -3.20215584966036    4.53961325892973    4.54735263918968
H        -3.49957117451758    3.68157575911201    5.13449523917826
C        -4.16732379105270    5.38060772879061    4.02114811396151
H        -5.21035694083544    5.17975193935140    4.20634252056725
C        -3.76838836587497    6.46889408341373    3.26265103432578
H        -4.49490482827641    7.14471436495882    2.83758137656540
C        -2.41165006440419    6.66636010670679    3.06495495087992
H        -2.04579845975879    7.49744850415619    2.48364653426885
C        -1.51489352798229    5.77562812689826    3.62886156518426
H        -0.45248708360326    5.92324056905116    3.49063486403883
C         0.93922723106188    2.14751071785079    5.88575125458646
H         0.92516595995045    1.28268954985639    5.21902880033670
H         1.89979260825848    2.65493828487743    5.78279342024770
C         0.71609767527737    1.70031747938454    7.26797029413080
C         1.37749100456422    2.23574522638742    8.37741618190513
C         1.12424635556654    1.80732055358307    9.66783864599851
H         1.66044876932165    2.25177829432934   10.49286940489969
C         0.19196062257128    0.81122212475474    9.89198525668294
H        -0.01072453649104    0.48245052126805   10.89958316542181
C        -0.46481882889408    0.23903888516913    8.81439773360630
H        -1.18679247809547   -0.54690098801402    8.97498882267634
C        -0.20050494220228    0.67379503747805    7.53290424143685
H        -0.72198145255430    0.22444534818188    6.70162553238680

