65
CSD_code = JEYROU | q = 0 | S = 0 | Stoichiometry = C28H32MoN2P2 | MND = 4
Mo        6.48327438729997   18.70050144372757    2.11396912272221
N         7.74285933365126   20.10632873215968    2.09388115127648
C         7.93502986542209   21.19705338386397    1.16969440730972
C         8.62713156862518   20.23049804395471    3.22654847535775
N         5.59271268137945   17.81178704851709    3.52114803096082
C         5.19344947170790   16.43394089721875    3.67225968696308
C         5.33156481652804   18.55788043996015    4.72755338745787
P         4.87924104170085   19.42492614369280    0.56108372685098
C         3.48844332429968   19.86254643019686    1.62885778407365
C         2.19061997536365   19.37368124098223    1.49656971326983
C         1.21020159942090   19.75459190347875    2.39547687097695
C         1.49941813176770   20.63657694889719    3.42287193480640
C         2.78175944540832   21.15495286388778    3.54266975944557
C         3.76287843534701   20.77505806875779    2.65140576832249
C         4.18566790882549   18.07061693586458   -0.43928086179259
C         3.88155831262256   16.84914735130344    0.15499761053000
C         3.41844087990762   15.79741403707273   -0.61096702027313
C         3.25952431054598   15.95385091627218   -1.97976538766009
C         3.55875619763364   17.16575535441363   -2.57705028538282
C         4.01976085317970   18.22135108997463   -1.81035668544356
P         7.33654762280069   16.92218637642785    0.84106876226548
C         9.10526884627169   17.01657762431292    1.19988733727636
C        10.11448288014255   17.10316976890057    0.24343810510253
C        11.43710201919411   17.20443612055875    0.63684261276144
C        11.77578330172051   17.20264519891896    1.97936279800588
C        10.77967609492361   17.08273283562571    2.93896707843810
C         9.45993602773799   16.98559828510207    2.55152683215616
C         7.28914769160194   17.23843668825128   -0.95153931189587
C         6.85595330424859   16.25275395828744   -1.82951935811475
C         6.75332071245090   16.52092597784176   -3.18310425214005
C         7.08369913259110   17.77396643508360   -3.66861552960359
C         7.52135622343083   18.76145135642454   -2.79873263292838
C         7.62098240080476   18.49623484431994   -1.44706171104495
H         7.83730032075044   22.16577009183102    1.68486611287628
H         8.93704824335571   21.16065640074503    0.71633349086363
H         7.17931098639889   21.14597171238051    0.38152482548863
H         8.43649018218889   19.40910573904801    3.92926849685430
H         9.68055404331413   20.17794593332940    2.91351094064852
H         8.47768478516620   21.18825640004253    3.75073692095909
H         4.10306854814825   16.34815376136047    3.79314178047926
H         5.50588685730922   15.86419027587844    2.79321645176506
H         5.66371458540083   15.98764875093042    4.56278292200881
H         5.85072954528779   18.11687412450738    5.59379686482417
H         5.67561546233574   19.59211418690375    4.59793926369632
H         4.25517311236483   18.57914333604936    4.95421107122206
H         1.95272973436920   18.69398342725933    0.69025961029626
H         0.20889740684809   19.36063838609127    2.29094901136127
H         0.72967432492422   20.92877546541810    4.12212914774394
H         3.00720007554095   21.85889989337839    4.33225401999040
H         4.76676704130690   21.18965152486815    2.72159339765889
H         4.00824993982232   16.74703775604341    1.22800710046106
H         3.18293602315244   14.85058577595569   -0.14510092994746
H         2.90348743136349   15.12820052162251   -2.57908901412634
H         3.43610979609340   17.28783371746792   -3.64373789935149
H         4.26069180755999   19.16939304323599   -2.27091631746456
H         9.86038537826815   17.09296156716506   -0.80729370125852
H        12.21183317754914   17.28286697352433   -0.11306327899980
H        12.81020192513394   17.28361516191536    2.27980648912684
H        11.04151677623091   17.06158927674589    3.98815559936314
H         8.67131235978231   16.87054507588924    3.29271797193930
H         6.59435537819695   15.27778086493535   -1.44230786212049
H         6.41123503724109   15.75146215643412   -3.86034986441349
H         6.99958005187421   17.98469908560777   -4.72509994655857
H         7.78079795338201   19.73961423838694   -3.17934789761235
H         7.96541291078757   19.25486063083126   -0.75158269785213

