61
CSD_code = JEYYAN | q = 0 | S = 0 | Stoichiometry = C28H28O4Ti | MND = 12
Ti        0.99916852667876    1.99975791732183    7.82458595411940
O         2.21072951194213    2.01359776685324   10.56100149909478
O        -0.21858042771701    2.17132105276281    5.08827671566319
O         1.50726175031096    3.35258560868511    8.97581515858242
O         0.60059711571526    3.40971198003981    6.69982248554375
C        -1.00601193595984    2.25320259709665    9.16371993601062
C        -0.07266032214269    4.54869245431106    4.75016228187131
C         2.23735497231855    4.38536107472094   10.96385945082080
C         3.05103676746944    2.14263850614220    6.54160120302354
C         1.99280760566788    5.61399297197366   10.34952491617443
C        -0.32295948069725    1.13665135661881    9.69718603879154
C         0.36659365519168    5.72693755934484    5.35493665301135
C         3.34993203915470    1.70270101285502    7.85265035879868
C         0.25354171398702    6.94201828199738    4.71171885652784
C         2.19916780457822    6.80008002465425   11.02303356403341
C        -0.23823510514542    0.14913720749852    8.69983243307374
C         2.72927489278744    0.45239318544358    8.05586293391821
C         2.07055304479926    0.09973203812015    6.85464491816960
C        -0.30683115312539    6.99032372953862    3.44519599113308
C         2.65612060063393    6.76764940543120   12.33089203406665
C        -0.87692130174967    0.64155789319944    7.53857693761229
C         2.27567458028798    1.13398429590554    5.92483473411948
C         2.89911320659282    5.55412393075656   12.94691483077711
C        -0.74544109567168    5.82736068422790    2.84003763695850
C        -1.36588577259454    1.93198223440973    7.83337332982586
C         3.57563512385468    3.38995840996801    5.89604690180269
C         2.69837969607409    4.34616786752195   12.28709880806558
C        -0.64031387335521    4.59118175268659    3.46914350933111
C        -1.39848705886242    3.50016870391143    9.89805204930641
C         2.97200320137765    3.06221502556554   12.99888601312737
C        -1.12638068798175    3.36425310987796    2.77032419462297
C         1.98591487521071    3.15165577062250   10.15915853467120
C         0.09299825571312    3.27794939440524    5.51865848405278
H         1.63549986899263    5.61155592778084    9.32859078484827
H         2.00645399647193    7.74420094993985   10.53572469346476
H         2.82275026630200    7.68838205625632   12.87082531809591
H         3.25439788438271    5.53936498151596   13.96767667469468
H         3.31695824351496    3.25064123248445   14.01316585386736
H         2.07410437857908    2.44826851891472   13.03272592183343
H         3.72218975364678    2.48444363139710   12.46297854520468
H         0.79987945755868    5.66159688679532    6.34385572882528
H         0.59836751188386    7.84631922492772    5.19060103445037
H        -0.40208614653500    7.93467507556434    2.92928032538767
H        -1.18180615830067    5.87560354745507    1.85228487108043
H        -1.57081682866874    3.61890303215900    1.81072810555343
H        -0.30370855267800    2.66957267457819    2.61180278327715
H        -1.85878578454458    2.84221189405475    3.38223954704944
H         4.02395203167080    2.19534470531579    8.54229698094083
H         2.86867611967094   -0.17789525881218    8.92456505190718
H         1.61981313164178   -0.85895554950131    6.63300858733690
H         1.97165734125574    1.11804447144255    4.88804071349151
H         3.54255475206817    4.22601027427444    6.59662675222776
H         4.61340038326097    3.24510501633557    5.58591378741621
H         2.98829056386434    3.64620062719216    5.01467699876769
H        -0.00531247009503    1.02310727829326   10.72367276041320
H         0.11695984483519   -0.86205700942719    8.85012144650528
H        -1.09009663583951    0.08549718845120    6.63503887781953
H        -1.99844984780837    2.53338735257594    7.19202122780506
H        -1.24022071955990    4.37990427017440    9.27156436687961
H        -2.45632939501137    3.45948850017990   10.16874085764784
H        -0.81544371591923    3.61103369519490   10.81180205651379

