61
CSD_code = JEYZAP | q = 0 | S = 0 | Stoichiometry = C18H38Cl2P2Pt | MND = 4
Pt       -0.00001160136517    6.53357275717115    0.00000090980554
P         0.50326188169874    7.86155171867517    1.80608120106827
Cl       -0.76427920881772    4.85768304387442    1.42112177760228
C         0.98952844172317    6.95250871728698    3.32162826341249
H         1.18383958959330    7.65311072323599    4.13749700887105
H         0.18648997699013    6.27231391126864    3.61086093156287
C         2.25121660828390    6.15942089547247    2.98446207458195
H         2.50176823284777    5.49780268630355    3.81732472686295
H         2.04546319212553    5.52970305256529    2.11122608620548
C         3.43588008020412    7.07327133540863    2.68331203384460
H         3.63297251690263    7.70888607274685    3.55133331138101
H         4.32471919821928    6.46148146554028    2.51320913142892
C         3.19442748802436    7.95047376559739    1.45775968600023
H         2.99492699561126    7.31269095072578    0.58919287063528
H         4.09456421225719    8.53133761035282    1.24125784940849
C         2.00757120801262    8.89483180991427    1.64137150713465
H         1.90792598596975    9.53493894302042    0.76345579363074
H         2.13630946652036    9.51818072254055    2.53111715895242
C        -0.90749193637052    9.00441740771044    2.25737139130422
C        -2.17598137394525    8.17225327870345    2.06174062892912
H        -3.06606848414333    8.76079016305005    2.27953951019698
H        -2.16975275169879    7.29662087037073    2.70996994085845
H        -2.23247680698048    7.82711336793811    1.02482865167252
C        -0.89718366704043   10.16754661036859    1.26495742250908
H        -1.83293584925286   10.72157338662974    1.32414562791214
H        -0.78094537681836    9.79657685283095    0.24642966761530
H        -0.08022348381203   10.85446449010365    1.47622672813581
C        -0.82467984372720    9.52314300763177    3.68970681904270
H         0.12443417982828   10.02365667557247    3.87457435183638
H        -0.94370478606956    8.71413645354541    4.40713717216962
H        -1.62218747436787   10.24530477501117    3.86068196515349
P        -0.50329722195202    5.20558494945756   -1.80599711577832
Cl        0.76401240420969    8.20961063512089   -1.42112602419102
C        -0.98949222148105    6.11444004656340   -3.32169166907222
H        -1.18370963119663    5.41371401180829   -4.13748173922501
H        -0.18646277275672    6.79462741216354   -3.61097033623677
C        -2.25124932724511    6.90751915880751   -2.98477414695548
H        -2.50176736768777    7.56898744280013   -3.81776682181804
H        -2.04561032738574    7.53739087360107   -2.11162653255686
C        -3.43588222296558    5.99364413620345   -2.68357882779986
H        -3.63285783579669    5.35787636335144   -3.55151420078505
H        -4.32477569839400    6.60540232112874   -2.51365262763275
C        -3.19445793127950    5.11664847517981   -1.45787392287657
H        -2.99497813565965    5.75457786310470   -0.58940925450650
H        -4.09459588248040    4.53581814536582   -1.24129197162653
C        -2.00758884513149    4.17227527852909   -1.64132863212266
H        -1.90798566524548    3.53224111686274   -0.76335629647767
H        -2.13628149078891    3.54885661608165   -2.53103191693635
C         0.90750208318205    4.06275766002477   -2.25721851920839
C         2.17593197452441    4.89520618668458   -2.06242717010389
H         3.06602537388589    4.30665517495404   -2.28016493831259
H         2.16941279089736    5.77047185996642   -2.71114721114352
H         2.23269528569546    5.24093881846754   -1.02573300244371
C         0.89768592216099    2.90014438325931   -1.26419678272790
H         1.83347951917643    2.34619143484805   -1.32340846416654
H         0.78175251028288    3.27164148340357   -0.24582528430914
H         0.08072366578553    2.21302715440652   -1.47480454714683
C         0.82431453607173    3.54328047044670   -3.68926523436227
H        -0.12483702245276    3.04264988301752   -3.87361859758730
H         0.94312862415331    4.35191634236951   -4.40714936179017
H         1.62178829947039    2.82104678085566   -3.86009104982633

