53
CSD_code = JEZCIA | q = 1 | S = 0 | Stoichiometry = C18H27N5O2Re(1+) | MND = 6
Re        1.17362911943810    2.73716039603500    1.82357871305166
O         0.23890495028960    1.96853873676283    0.69847421462500
O         2.16481392660475    3.43003305875794    3.11134035904075
N         1.24028875364638    4.51795642152915    0.71456725455943
N        -0.49397963968149    3.82801664015277    2.59767714250028
N         0.83107120629800    0.82084409403550    3.21040380589329
N         2.94074474160524    1.57996681753939    1.03655429843173
N         4.38302527449891    4.28141716241214    1.50439072980434
C         1.89788791718735    5.04936318738219   -0.32160217607929
C         1.42557696615601    6.33422145488880   -0.58164697034148
C         0.41575805194438    6.59011911309743    0.33576155571675
C         0.29959317883311    5.44164165869363    1.12906633516159
C        -0.60505179493465    5.02806680310860    2.12022207273515
C        -1.47018519193691    3.28619370822054    3.50282332606730
C        -0.86303984689821    2.25831988843421    4.46186269553560
C        -0.51891464281115    0.91874454249102    3.80144681929514
C         1.82276744445041    0.69562121218287    4.28099493477916
C         0.85281830553177   -0.39716109358716    2.37375329543069
C         2.17627475452813   -0.70687690995246    1.67843405712659
C         2.54760964141005    0.26698534072399    0.55403580143381
C         4.20575237072076    1.83308736824787    1.03510427220486
C         4.90482361501351    3.02303858206071    1.34267736441525
C         6.29151589933107    3.13680907121344    1.49715711344614
C         6.57958496414007    4.47300511899949    1.75437524621897
C         5.37755864624843    5.15520804142454    1.73364081195246
C         2.81159408175153    4.05124605303054    4.14242156559247
H         3.41129275597223    4.51725114941621    1.36808786765773
H         2.65619889490997    4.50207966071511   -0.85147184838365
H         1.77776815048245    6.98874572190168   -1.35326036271472
H        -0.17570347502508    7.47973891716192    0.42094738849741
H        -1.40441470266775    5.68936544191868    2.44286800208656
H        -1.93454368434172    4.09343935299840    4.08196225945872
H        -2.25630572634181    2.80061247147867    2.91080940251648
H        -1.60032309267125    2.06559565339844    5.24250845562275
H         0.01135494098167    2.69717191465850    4.94309339762998
H        -0.62930339582508    0.11813057112096    4.54505215569514
H        -1.24119150613877    0.73907079755676    3.00235688433822
H         1.68102472670839    1.47481500527758    5.02520427995626
H         2.82995903392333    0.79212383026618    3.88083341644004
H         1.73098508843410   -0.27350613690791    4.78359748476011
H         0.58459575111521   -1.25909710005483    3.00044190524491
H         0.08853123574320   -0.27403395988329    1.60217103379284
H         2.06523984892063   -1.69219769837036    1.22271615016355
H         2.99700951323094   -0.77210449670419    2.39371978508719
H         3.36188274573855   -0.17568003839542   -0.02959550107502
H         1.68108402379241    0.41013080747033   -0.09849264418440
H         4.88377805196268    1.02634094027863    0.74331121004791
H         6.99524778292716    2.33096618729768    1.43758351600305
H         7.54634406918821    4.90013735604739    1.92536765932170
H         5.18693129197930    6.20312503863898    1.86155803409200
H         3.80000944553230    3.60426162625205    4.31411538992739
H         2.23011993281222    3.97055906851543    5.07148399447637
H         2.94790560529015    5.11939145006348    3.92451604494253

