57
CSD_code = JEZGUT | q = 0 | S = 0 | Stoichiometry = C14H32B9RhS | MND = 9
S         6.51463713324075    2.90647476129663    5.49407264972871
C         8.82792575237350    6.80675928785315    4.61348627842023
Rh        9.26961181388358    4.38833717637644    4.30829861173879
B         9.79928667317552    6.08308573990290    5.71789900282678
B         8.84344824396097    7.56705400095080    6.12726805675285
B         7.35797356528841    7.38465039268502    5.24341873696742
B         7.52139058050358    5.76855154984403    4.41213736367613
B         8.99142244600391    4.70307587899279    6.51730197982142
C         8.93564629568756    6.26574973092700    7.20650171436524
B         7.40531756831322    7.08847749395910    6.98515908655888
B         6.49510460514616    5.99524786579215    5.92431252572409
B         7.46840502041113    4.55863826714370    5.71482534082808
B         7.48451859887634    5.37399142126235    7.26326507899646
C         9.41524600114391    7.55768445054287    3.42377574554090
H         9.84257344238315    8.51238489601717    3.73345862879881
H         8.64660502644193    7.76528960668767    2.68047924039841
H        10.20405464398423    6.98193499513015    2.94081263309017
C         9.70632572253168    6.49002271339650    8.49377747765035
H        10.78030725150037    6.49836672532251    8.30875034959265
H         9.50169329895466    5.70677700864824    9.22379298937168
H         9.44026887919998    7.44473319346012    8.94741986158366
C         7.55644536163402    1.74215951969196    6.43218315823367
H         7.07940189220236    0.76675418064587    6.44545840867865
H         7.70135995181208    2.11310580878974    7.44074223726262
H         8.51098845716018    1.69047296403884    5.91970794435624
C         5.12403877505134    2.95258694143297    6.69177268412520
H         4.72691498527164    1.95007584288255    6.81167677888623
H         4.36279613258802    3.60351777203233    6.27787339278448
H         5.46802635419581    3.35107001572854    7.63919739279442
C         9.24268907498091    4.12063585435770    2.16682136573320
H         8.71799581740784    4.97012958508352    1.73848505939307
C         8.46329483377906    3.12605680800140    2.75874492514135
H         7.38223156118945    3.22960179189236    2.69739017217790
C         8.92327429018528    1.69052763386465    2.88908414210887
H         8.95068711213032    1.22634428322133    1.89629776451091
H         8.17933435046711    1.14305249368670    3.47238574090064
C        10.30248394122417    1.56490134036214    3.56344595534902
H        10.32403841405137    0.65214163958295    4.16453995784861
H        11.08106642799451    1.46059862659290    2.80600506721705
C        10.64304000357988    2.75321616607135    4.44585467682533
H        10.82197865001516    2.49260425133342    5.48723631189146
C        11.32346482854130    3.88130051239449    3.96889832278551
H        11.97559245591017    4.39223051326316    4.67309011364878
C        11.74309201447087    4.08121707572835    2.53043375819298
H        12.59017366688719    3.42335947291080    2.29870925957783
H        12.09999557250489    5.10817819765006    2.42373811399316
C        10.59296675382986    3.84243050587248    1.54121922268120
H        10.72716263678658    4.49144140023636    0.67287756786917
H        10.61360474403664    2.81396895447561    1.17710919961072
H        10.95997871558773    6.29369955595500    5.78136140562941
H         9.45224932148629    8.55342220522140    6.31788419896117
H         6.83656925650571    8.28516133979682    4.69477179823856
H         6.94420582089518    5.73952138110678    3.37616642689206
H         9.58494014476508    3.93874550433491    7.20659270156567
H         6.99299769556065    7.78803241860446    7.83762081326098
H         5.31375690471606    5.95165066345522    5.90978909165125
H         7.13550051759044    4.92459962351200    8.30142151679061

