116
CSD_code = JEZKAD | q = 0 | S = 0 | Stoichiometry = C62H48BIrN4 | MND = 8
B        -2.38049497575322   12.70975810311950    3.89812088894253
C        -2.43275211576956   11.55196092743797    6.10837592484395
C        -2.85908140356711   11.88062446562839    7.43278843815887
H        -2.82864824820855   11.21903270091433    8.27675124345797
C        -3.22887668939130   13.20128420032756    7.44045987318499
H        -3.57950085997841   13.75588019800179    8.28833942022501
C        -3.02394009780296   13.72069865519170    6.12568817599274
C        -2.95625030750063   15.02044398399820    5.57145362761080
C        -2.27407509692647   15.18148620849861    4.34671877821138
C        -1.58601720456495   16.29934322055570    3.77566694734915
H        -1.67374015881184   17.31497535033328    4.11055383322881
C        -0.75094083686130   15.82375411965356    2.80166539644369
H        -0.04809483913787   16.39018368043085    2.22176735562017
C        -0.90354958511911   14.40015483681871    2.75051170906009
C        -0.08964862186676   13.38138910150637    2.21916644178826
C        -0.17673884426906   12.09590979586595    2.82773417765702
C         0.64529206308878   10.95949536028753    2.91308418575756
H         1.53853355721172   10.72576768074588    2.36870416703057
C        -0.91012925728322   10.72704663690830    4.43039356960127
C        -1.68180729564852   10.45772981422881    5.60051626490454
C        -3.42565941973684   16.21152037946921    6.28336679531952
C        -3.12472051639971   16.44522164670389    7.62354596267339
H        -2.49481201847775   15.74990759549511    8.15681741501581
C        -3.58896489107581   17.58245798749829    8.25762467697427
H        -3.34463763498532   17.75394738483510    9.29584059784086
C        -4.35755388717060   18.50443715460102    7.56661917445560
H        -4.72166280221609   19.38995450653542    8.06585712027606
C        -4.64966299489395   18.28929103380234    6.22968777063763
H        -5.24308404033989   19.00786089795914    5.68348091056620
C        -4.18448563110469   17.15584021248822    5.59113015340769
H        -4.42082942220148   16.98101219274850    4.55148243261676
C         0.90540566565370   13.70298757662132    1.19998022322918
C         2.22298156516889   13.24983497144805    1.27505825427612
H         2.54154489195285   12.67193745182073    2.12863431333122
C         3.13456947919781   13.58216273019601    0.29103799859417
H         4.15256872543241   13.22910660490768    0.36620205834511
C         2.75304857569296   14.37152484555611   -0.78168931957702
H         3.46813937652674   14.62758400841876   -1.54912630531727
C         1.45063015772235   14.83763868045840   -0.85998815843219
H         1.14730972569269   15.45756354454296   -1.69100815870078
C         0.53565178984406   14.50994482459874    0.12144231701549
H        -0.48422765576958   14.85937948649346    0.05215809291849
C        -1.71294332807779    9.22865553924787    6.38033083853033
C        -0.57919988912487    8.44108263502470    6.66778576063725
C        -0.71247436436605    7.35614103946111    7.54077751382909
H         0.17364847410824    6.78760187728869    7.78077039254828
C        -1.93106182394121    7.01790304915136    8.08655455380884
H        -2.01141680215962    6.17271304316183    8.75482636852239
C        -3.05975863437664    7.76318145426257    7.76623602525660
H        -4.02427616884189    7.48883951508100    8.16702002049306
C        -2.94325753395777    8.85831413265089    6.93859777036138
H        -3.82243615606288    9.43350770594300    6.68535807118310
C        -3.64001641026733   12.26855471530879    2.98659505692898
C        -3.46605056260460   11.60741787586407    1.77355191301875
H        -2.46446579798332   11.37732003818476    1.43482093468195
C        -4.54396402823479   11.24017285970823    0.98784116404308
H        -4.37977136994821   10.72291836700793    0.05268285731878
C        -5.83217716329903   11.53487163152441    1.39908680078539
H        -6.67722539241376   11.25008246568199    0.78866441779377
C        -6.02993716990057   12.19877754333088    2.59759260206981
H        -7.03274833658921   12.43618931482715    2.92427938467132
C        -4.94517918927874   12.55745703173075    3.37771099249730
H        -5.11391107382474   13.07398154260579    4.31340187261818
C         2.72421946153617    8.95147824336378    4.51733816610046
C         3.75339550384729    9.10755651764546    3.60202735817797
H         3.61092101493067    8.83836840246112    2.56394551152395
C         4.98830140474023    9.61454183741357    3.98759301620539
H         5.77890674601242    9.71452593662238    3.25650464272875
C         5.20513126656680   10.00066063247453    5.29808314368930
H         6.16334272752709   10.40622055741201    5.59074674715356
C         4.19064812542087    9.87840992112530    6.23137876084031
H         4.34696620623185   10.20620413082584    7.24925790263532
C         2.96403698489739    9.34665035502022    5.85425155340013
C         0.70955684575668    8.71531457171791    6.07171207473965
C         1.79514911907581    9.19347666393108    6.71374330872271
C         1.78402882249606    9.57049270014228    8.13611673771281
C         0.81295418942947   10.44090343050969    8.62425640957451
H         0.08824191289457   10.85916644498130    7.94113405464860
C         0.78301909110152   10.78069925205275    9.96356872618803
H         0.02609751444444   11.46056735011959   10.32880639221084
C         1.72142773527949   10.25605835146788   10.83676380226467
H         1.69831865450336   10.52262449319958   11.88355115705156
C         2.68969234199612    9.38762324865709   10.36142649528364
H         3.42164829148091    8.97263807160337   11.03993507819484
C         2.72212448916678    9.04661212265040    9.02150629840203
H         3.46712813328288    8.35536585714329    8.65521595233507
C         0.41538430563869    6.08285700921607    3.95899243398367
C         1.39474451412924    6.40169891288054    2.95439817797578
C         0.77509118723931    7.25653766036590    1.99881686997734
C        -0.58497109762017    7.44267652337307    2.39729632626053
C        -0.81927121224016    6.70576169094205    3.57918986820755
C         0.55876834672517    5.00872885780681    4.99425232552409
H         0.34808890130792    4.03377319166018    4.54857728637976
H        -0.13826325815291    5.16368038172454    5.81508848310274
H         1.56821463825016    4.98579801677976    5.40003214558833
C         2.72388506457437    5.72752895558879    2.80108155643770
H         3.14540701113227    5.46829621072407    3.76941632313291
H         3.43668210958377    6.36514469521703    2.28352960438265
H         2.60612933963034    4.80926776785181    2.22133214383967
C         1.36008624083251    7.68001904090808    0.68739681013748
H         1.10651632507876    6.95572669334016   -0.09047028326861
H         2.44517275403716    7.74118287463594    0.74292870666825
H         0.97840978829147    8.65151974292179    0.37500333603875
C        -1.62631792250135    8.17794314041567    1.61368459962471
H        -1.18045918424267    8.95665734690024    0.99611940582083
H        -2.36482997114297    8.64108176293443    2.26826422182308
H        -2.15401764573541    7.48724090234402    0.95230293922017
C        -2.15484407202413    6.47692943763796    4.21164139232560
H        -2.78664231481435    7.36059751733012    4.12984275248645
H        -2.05543834276709    6.23029209608707    5.26639300345419
H        -2.66891953037957    5.64964335361949    3.71642382473370
Ir        0.84156878706913    8.26132805124296    4.08122972991251
N        -2.62725224840986   12.66651009384588    5.37124098046522
N        -1.88337973009716   14.09885099291674    3.63529962678068
N        -1.16329528329135   11.84932790864618    3.72899529912909
N         0.20443041805569   10.14472194289840    3.88513676391373

