116
CSD_code = JEZKIL | q = 0 | S = 0 | Stoichiometry = C62H48BIrN4 | MND = 8
C        18.29396543468295    5.25557080301777   12.11212606021989
N        20.37413984971942    5.41493761010208   12.82312953225690
C        19.62395157005816    5.03097548471548   13.86740885911733
C        19.98950873831099    5.19477860537264   15.21361412204661
C        18.91011102868196    5.41516074498745   16.10045271881710
C        18.79132113283659    6.12609161719358   17.33139127938949
H        19.60645874549435    6.45592404285695   17.94440909153911
C        17.46307720869240    6.39323008637401   17.53667088861121
H        17.03621775943868    6.96038504522169   18.34140829416560
C        16.73922303566665    5.86785466085521   16.42691031676981
C        15.45004382186764    6.16968164376631   15.94351133214472
C        15.20658942772879    6.01972660214175   14.56143482664739
C        14.22305679068894    6.52168238363564   13.66393478693025
H        13.31040490361233    7.01457195408182   13.93610508356642
C        14.66405200733601    6.28418522032039   12.38653324159182
H        14.14435493381658    6.59089617399079   11.50171360146237
C        15.93505894458821    5.63467901001999   12.46106618673499
C        16.99524816020974    5.39337514131875   11.53883938818784
C        21.39648956934285    5.47679119813519   15.43435608427610
C        22.22015381918556    5.83479167573208   14.34524480551269
C        23.54794606733499    6.16187983000500   14.58446410664633
H        24.16722143690141    6.46031418630089   13.75143358392893
C        24.08382326904497    6.10855803642680   15.85824297206408
H        25.12061690214991    6.36332339294960   16.01879212397510
C        23.28745778934643    5.71656479778252   16.92253780712571
H        23.70362940986697    5.65278537393888   17.91701420931227
C        21.96070963539744    5.40563305897849   16.70977863581528
H        21.34495895600369    5.07818408482617   17.53260262248239
C        14.47959846157760    6.78328819774733   16.85337333369571
C        14.24273540327504    6.18986030471811   18.09344867789832
H        14.76525228883138    5.27969788090606   18.34904171341957
C        13.33521261898378    6.74270091461186   18.97631897958246
H        13.15554465406749    6.26765741949389   19.92968957843387
C        12.65613234330664    7.90278980177604   18.64143252682486
H        11.94699166589058    8.33513932634447   19.33154141064337
C        12.89725564895191    8.51012378726287   17.42033284822518
H        12.38183244569625    9.42356782188909   17.16106995561001
C        13.80143335194862    7.95751790747573   16.53269345088626
H        14.01079612559629    8.45481299450446   15.59775530047317
C        16.83696767380555    5.20211906654721   10.10436317717064
C        17.77033764608108    4.38606163564681    9.44848980627635
H        18.61808226836220    4.00523335353911    9.99687609555974
C        17.60774277647712    4.03425380957747    8.12439132924234
H        18.33550970891323    3.39141331011404    7.65138306882302
C        16.51159529487265    4.48633478662234    7.40689058894307
H        16.37654280773103    4.20195907644939    6.37410031620439
C        15.59384655231283    5.31588749338560    8.02965360250958
H        14.74431648812475    5.69150318939904    7.47697759735269
C        15.75262343972393    5.66939809633888    9.35623273700448
H        15.03158383618912    6.33124118039293    9.80274679138214
C        16.83231534795285    3.01050769394700   14.47100909751435
C        16.72822766003481    2.21108754736979   13.33448980459330
H        16.94518894024970    2.63819317548250   12.36457000969908
C        16.35177194825325    0.88275806614953   13.41836880474283
H        16.27984245523350    0.28460291346371   12.52068152976308
C        16.06691924558309    0.31933807401632   14.65023884429046
H        15.77293349509806   -0.71836051128919   14.71967605153402
C        16.16156150670860    1.09486990242656   15.79251713481654
H        15.94049191088070    0.66270369572968   16.75867279455604
C        16.53923440178632    2.42251918577577   15.69824478794333
H        16.61067807955721    3.01664706664161   16.59953047729455
C        22.49034332653189    5.27807776690168   11.82901834707700
C        22.01609365489745    5.65381095914968   10.56190979206749
C        22.58531416080122    5.02985507577294    9.45944465570468
H        22.23860639439204    5.25183760023748    8.46158658076825
C        23.60110757982845    4.09624673443479    9.61692215440442
H        24.03570312279787    3.63051848837529    8.74348817921972
C        24.05135562065905    3.74780362611927   10.87643527838636
H        24.83671206267680    3.01535365886332   10.99068069463740
C        23.47847570582443    4.32926300529500   11.99750389408402
H        23.80145029942501    4.04280622215642   12.98828230598152
C        21.70446880864863    5.95511011401578   12.93874206474119
C        21.50929604373198    7.42701963260301   12.44660394145433
H        22.50290290859162    7.86542450524215   12.29573995593524
C        20.80301522606448    8.19817572257809   13.51947836166678
C        21.55833947295494    8.92972833348919   14.43508385323074
H        22.62739495428046    9.01013122844030   14.29567796103276
C        20.96958775125290    9.53160199482404   15.53124594107843
H        21.58054261044801   10.08289292668768   16.23149432166346
C        19.60562937196680    9.42056644341970   15.73973057445310
H        19.14569838364900    9.87663588322903   16.60378224571904
C        18.83466791190841    8.72940327563904   14.82220153583791
H        17.76564094283401    8.64890938727365   14.96432187594207
C        21.20303751296306    9.00604402830757    9.64780414364589
C        20.98983593366458    8.12119735702211    8.55618012140171
C        19.60435619360591    7.78175258884943    8.51901094302854
C        18.95223283747647    8.50137937508186    9.56696392680964
C        19.92959485804575    9.26370250656220   10.25554979374362
C        22.46066443302657    9.78186078108527    9.89478260414076
H        22.50122817671432   10.65003201454345    9.23303447584088
H        23.34083967630313    9.17051190497254    9.70322114531561
H        22.50584058044455   10.13901697156998   10.92167781707557
C        21.99124259070470    7.82136650515271    7.48512279127327
H        21.68746532055477    6.96303921740981    6.89020126534925
H        22.97712432730861    7.62649658489379    7.90367749690070
H        22.07484448803961    8.68091193339380    6.81568168619452
C        18.94730774212414    7.06019414097788    7.38468940153757
H        18.98441434734449    7.67763019268453    6.48392213303394
H        17.90675668448026    6.84290481514379    7.60554493132746
H        19.44763606273695    6.11770736722212    7.16703610580604
C        17.47730802438666    8.63921539131724    9.78308698466385
H        17.20509782477439    8.45883866998684   10.82343991452058
H        16.92484271927900    7.93911600605904    9.16308225860482
H        17.16024414637355    9.65226263880393    9.52614403248358
C        19.63646347720368   10.34756369907839   11.24399705079619
H        19.43525102005762   11.28193976038895   10.71374534765788
H        20.47591911216005   10.51521902184209   11.91574226744335
H        18.76383378400490   10.10766695318341   11.84819535532558
Ir       20.53707869671340    7.09021900663183   10.57727857002839
N        17.64554269884934    5.22638814867682   15.64232150406630
N        16.15690916380099    5.43809612895704   13.78635662164423
B        17.24524802544637    4.56466907110923   14.34604832212206
N        18.38835243669025    4.84159254053470   13.40872026033537
C        19.60490179510063    5.70286951475598   11.71826164788964
C        19.42605825605491    8.13375680804257   13.72373259244999
H        18.80009189937348    7.62660514146031   13.00464318821518

