10
CSD_code = JEZLUV | q = -1 | S = 0 | Stoichiometry = C2HN4PtS2(1-) | MND = 4
Pt        2.94665331620053    0.76027771879151    1.34425904261898
N         2.75026503071346   -0.02739706741675   -0.53229856103263
S         4.04139976344279   -0.28448673883793   -1.47094092005448
N         5.29864273801208    0.17251129056622   -0.65620132266586
S         5.24030931018654    0.78466469783131    0.85364213707147
C         3.15800462669590    1.50759050686727    3.12279358251237
N         3.36344897666964    1.95276522598695    4.16723061105945
C         1.01333068368479    0.68547517595847    1.61884843216668
N        -0.13577636603521    0.57999080632824    1.63075045160135
H         1.89152192042945   -0.30079161607543   -0.99388345327765

