40
CSD_code = JEZLEF | q = -1 | S = 0 | Stoichiometry = C18H15Br5PPt(1-) | MND = 6
Pt        2.16410876399293    4.40322117865879    1.50647517241761
Br        0.98430857169339    2.74495311190612   -0.02575864434820
Br        3.22661483964490    6.25437552047413    2.91282629086998
Br        4.33405087121596    3.82361102851250    0.28539537171100
Br        0.00016654332198    4.61915528879163    2.80965632159656
Br        1.49912807755140    6.18499085955434   -0.14600008322333
P         2.95468718676081    2.75726363781593    3.05519718666154
C         1.64399863981448    1.45088793079980    5.21539770834175
C         1.07157957201933    1.43959584543583    6.47494272800253
C         0.96754298139652    2.60884214737079    7.20796099057231
C         1.45041418369569    3.79529310969557    6.68206248628318
C         2.02452767197984    3.81312386497606    5.42576879945918
C         2.11436622257375    2.64291018299113    4.67651154584331
C         5.61390428833626    3.72396403834371    3.45642392614954
C         6.87894177342916    3.62190415837092    4.01171861345292
C         7.21067355581603    2.53869303088312    4.80399741505872
C         6.26979776907098    1.54957318491434    5.04676231881428
C         5.00731969878881    1.64680614523643    4.49798708147630
C         4.67205995884646    2.73409286685203    3.69141219178655
C         1.51437529927791    0.54500050170872    2.22021936820085
C         1.35079896011836   -0.67762417179026    1.59795459058416
C         2.44488772462308   -1.33033236327965    1.05359611185844
C         3.70261935297010   -0.75481156500971    1.12311832279373
C         3.87733537660025    0.46428432282312    1.75237044201899
C         2.78608880459076    1.10757489662572    2.32613346391393
H         1.71765018184467    0.52764396812631    4.65804694888754
H         0.70269140884615    0.50845949243734    6.88239764571039
H         0.51072275165035    2.59412221423750    8.18727936620639
H         1.37541151883205    4.71230484716999    7.24696538792961
H         2.39542777439789    4.74425051237182    5.02252561702747
H         5.38126337100558    4.57761713816525    2.84170963754754
H         7.60422029491782    4.39785698247182    3.81842552907172
H         8.19892876934677    2.46115327914063    5.23470381260464
H         6.52071424694259    0.70017106225959    5.66672735386614
H         4.27564908799118    0.87361350118899    4.69037544136971
H         0.65555519306340    1.07776503724566    2.60729178742596
H         0.36399522211376   -1.10892863536335    1.51733078115901
H         2.31281537915404   -2.28045641140716    0.55588737575749
H         4.55170829600548   -1.24915063984264    0.67357945965589
H         4.85464981575486    0.92532889913751    1.78462413548740

