49
CSD_code = JEZPAF | q = 0 | S = 0 | Stoichiometry = C13H27B8Rh | MND = 11
Rh        0.79611031879064    1.15553037216453    3.29923351273289
C         2.72728649579965    1.30614371421752    2.15222874958928
C         2.64979676311337    0.01451283409728    2.75445048692096
C         2.60238867880221    0.19288104298901    4.17178176386786
C         2.67989775772420    1.59188453182882    4.44864626832747
C         2.74209922753681    2.28301260181152    3.20096575972329
C         3.01408214985063    1.53596881435386    0.69988931499495
C         2.77904259656825   -1.28950751516374    2.03246028748512
C         2.74765758227316   -0.89770958257242    5.18754522740346
C         2.84616511237383    2.21627527144914    5.79773850460418
C         3.05338318629946    3.74216089281819    3.06923362519767
C        -0.54087787089532    2.38684869010622    2.22925990439831
C         0.01424916973985    3.44101352345906    1.29374373130556
C        -0.49115122654108   -0.09609780147465    4.40119030834099
B        -0.98623687573254    2.69014010713794    3.72187850010290
B        -1.01792761481542    0.95565079332591    1.74288456301963
B        -1.03153416584163   -0.45855180365342    2.96363948137420
B        -0.99330819783230    1.29389541190400    4.95980437352354
B        -2.20019900816385    2.19451023302745    2.42863277347921
B        -2.16360409670222    0.03875210213479    4.31614823701291
B        -2.46659636378005    1.73933044506144    4.08502790761646
B        -2.49013951389253    0.49570270964680    2.66516446685410
H         2.98945645186423    2.59346873779289    0.45124290713483
H         2.29987989656557    1.01231088331199    0.06604446989391
H         4.01041330420238    1.15665070470622    0.46479654148757
H         2.38335250813329   -1.21567249223317    1.02239768307174
H         2.24690379934739   -2.08269197620200    2.55232948251430
H         3.83196588888298   -1.57302993612218    1.96688071377497
H         3.80876746728125   -1.07217324817972    5.37768951451876
H         2.31352886549326   -1.83021932866023    4.83402643956177
H         2.27901850017438   -0.62766610189118    6.13142645193767
H         2.43960786275126    3.22463265024830    5.81399683193847
H         3.90751262255424    2.27272976618986    6.04996802436160
H         2.34638363084777    1.63163560381417    6.56627771530444
H         2.96355415500757    4.07873906064765    2.04013489605618
H         4.07917760340723    3.92283549619903    3.39685988096648
H         2.39392031664460    4.34512309408099    3.69132281218107
H         0.57147984873867    4.20934920551458    1.82813549843933
H        -0.81258645719637    3.93748135219436    0.78440283928882
H         0.65296475818223    3.01072669387987    0.52372528699059
H        -0.00566814047645   -0.83103491496237    5.03712238334801
H        -0.78766815433963    3.76892438689845    4.15916105191898
H        -0.84335237290556    0.65834172106548    0.61357003698448
H        -0.84816522248078   -1.53810279709312    2.52443528980245
H        -0.78200217887986    1.58189129999578    6.08446285692817
H        -2.85073178489946    2.93653309548519    1.78841613965461
H        -2.76328828443055   -0.71608353707820    4.98961341719222
H        -3.38642006111176    2.23225330300408    4.63362707127726
H        -3.42828892803288    0.03369988872406    2.12068601559652

