95
CSD_code = JEZSUF | q = 0 | S = 0 | Stoichiometry = C38H49CuF4N2Si | MND = 2
Cu       12.91680354785518    1.64325798139091    4.24604448236574
Si       11.55043817567547   -0.19541335379188    7.27310412371564
F        15.01416300973250    3.50446268429220    5.79346036244152
F        12.60490603471540    2.68915677324988    6.94272571271614
F        15.74634065655158    1.48369792900823    5.82052847907225
F        15.22570287652314    2.46994969729447    7.65770885251704
N        11.54729449188563    1.52257866458827    1.55854214400883
N        13.64685712105661    1.92619968393929    1.42830102117635
C         9.79605815119557   -0.07611721421247    2.07805803619656
C         9.51056285269044    2.28788064550271    2.63749315469425
C        12.65715739797369    1.67612240573362    2.30889192239681
C        14.99103742183070    2.18423483717618    1.82233334605925
C        10.66029470402751   -1.18810505781040    1.52842284775908
H        11.33510636384226   -0.77128351876061    0.77247985072194
C        10.25878331804995    1.24321057350170    2.09346814024044
C         8.55407038362343   -0.33583834779985    2.63869172121087
H         8.17515674331490   -1.34437617029638    2.65977480132143
C         7.79714048440250    0.68499753734443    3.18306513736269
H         6.83380200483002    0.46407061863137    3.61748281341748
C         8.26866631858461    1.98227321523153    3.17961131189872
H         7.66823955243076    2.76710995253701    3.61152977065102
C        11.57456946360805   -2.09328220484712    7.12980130663597
C         9.85128121388984   -2.29627832672742    0.85473464975065
H        10.52173954014435   -2.96260884059732    0.31645657997816
H         9.13909276397625   -1.87846178286119    0.14631269170048
H         9.31042558817522   -2.88996013993501    1.58649113956225
C        13.40712442699125    1.74796485414937    6.20169930906561
C        11.83823397004076    1.67622656540360    0.22929531262913
H        11.08819219781558    1.59802437552608   -0.53046619608084
C        13.16675223457592    1.93160434164753    0.14747098878967
H        13.79813045684866    2.11277256054240   -0.69759019138600
C        10.31211903056778    0.43705788818145    5.96181932921482
H        10.19728448580413    1.51322539277262    6.03314412464534
H         9.33243740656068   -0.01128641132952    6.10125071995827
H        10.63622979378609    0.20606102857274    4.95167631210855
C        15.40078913781702    3.51054015744570    1.97683627565131
C        15.83809679027310    1.10786741822545    2.08926510391859
C        10.87060537926564   -2.89351564687856    8.02289180586258
H        10.32308968553296   -2.42727808376392    8.82827765936477
C        14.82297579093244    2.30221860829300    6.38137207623924
C        10.01540717915459    3.71111958655689    2.64974030034426
H        10.99342122424780    3.75409510093438    2.16109538219738
C        10.86095581270409   -4.27186713986960    7.90360847382232
H        10.30960181572349   -4.87275740375777    8.61342003595373
C        11.51278861771012   -1.76044483173883    2.66582053156050
H        12.15935355175583   -2.55029526618003    2.29023092543210
H        10.87800285667559   -2.17340308407761    3.44651540360807
H        12.13309203166946   -0.98180789091562    3.10738808477028
C        15.37853984063013   -0.32286027151917    1.93440614132383
H        14.36493029911619   -0.33456998460603    1.52053201647052
C         9.06605364442328    4.62649633316720    1.87215832822224
H         9.47419244107019    5.63362274042859    1.83009058052459
H         8.09095754375664    4.67424632387549    2.34913752653763
H         8.93236900275916    4.26507937892046    0.85413890720963
C        12.26884191581849   -2.72825385469812    6.10391982518536
H        12.82646369580383   -2.13261498282574    5.39539583481735
C        12.26277544526540   -4.10492119175152    5.97297897175162
H        12.81081605248225   -4.57459524473306    5.16765295502473
C        14.45378615001102    4.65999645903258    1.72254410058872
H        13.59442065841759    4.29880346700965    1.14697106230553
C        17.12396779953797    1.38695059240278    2.53120658637947
H        17.79728352390421    0.57652957455910    2.76006058314210
C        16.69235492468702    3.74210570765374    2.42800526857696
H        17.03089700711489    4.75378891587885    2.58175654278218
C        10.96336076228732    0.35493954710621    8.99897072329988
H        11.09236245282636    1.42680930478097    9.11202980332250
H        11.53123302691832   -0.13067631015470    9.78730020212808
H         9.91278651773486    0.13068112358217    9.15639740981255
C        13.33993313520573    0.43336114641800    7.00090580661710
H        13.79661460057304    0.58358284380013    7.98486455223957
H        13.94678138092161   -0.30917114360826    6.48229724464921
C        15.10878221813139    5.77631071336718    0.90710103012889
H        14.35927853123727    6.51089866959514    0.62070929151708
H        15.56365999744875    5.37622925141575    0.00299768225311
H        15.87498770540385    6.28719967799895    1.48274551354979
C        10.19506352713839    4.20241205913322    4.08747568717517
H        10.58403207356853    5.21768175997162    4.08887350396426
H        10.89872000369111    3.56670721960149    4.62149699407228
H         9.25010775949517    4.19545733158325    4.62389968407858
C        15.33341364346721   -1.00352565953251    3.30390868930311
H        14.94323031547607   -2.01479583495481    3.21147407251291
H        14.69282206435796   -0.43778963147497    3.97882068899245
H        16.32442958801921   -1.05120297069845    3.74583675766480
C        16.28245274492821   -1.09132716152669    0.96796279867428
H        15.89496007654280   -2.09644400614235    0.81698901748587
H        17.29293704057365   -1.17192715611356    1.35832465155582
H        16.32635120797544   -0.58916112187433    0.00342996254546
C        17.54495123856212    2.69064908388169    2.70377712709212
H        18.54232928263490    2.88929645271736    3.06542155288174
C        11.55789235083922   -4.88309450862131    6.87549175390743
H        11.55346081151428   -5.95959328588499    6.77930631086101
C        13.93978130522208    5.19271841674359    3.06257420964122
H        13.23944016158260    6.00909479985683    2.90031638873320
H        14.76402257898925    5.55312126993999    3.67139784961117
H        13.43799789509740    4.40425379432093    3.61997164163158

