45
CSD_code = JIBJAF | q = 1 | S = 0 | Stoichiometry = C12H23O7P2Ru(1+) | MND = 8
Ru        2.91106357010400   -0.06863007291780   -3.98194480483028
P         2.25729968978718    0.24360318406177   -1.81283441673927
P         4.97430400599189    0.63532981751972   -3.29590611013686
O         2.04015238753180    2.72001355140453   -4.63863669193790
O         0.79741210943008   -0.30721148540695   -1.41257036961804
O         2.26764333399185    1.79308862832492   -1.45824247545404
O         3.08908573606565   -0.34839741237656   -0.60383464805960
O         5.68592463482018   -0.66467753469817   -2.72208128685589
O         5.21464039307610    1.64767896411178   -2.09823301955729
O         5.98114836979350    1.27919494904579   -4.37203511070428
C         2.38282663930831    1.66126051707328   -4.37455151628533
C        -0.34915849345365    0.02677261659306   -2.18712833463366
C         1.98508518867374    2.25026191272359   -0.12190460676023
C         3.34177317818872   -1.73974321979140   -0.42006291022437
C         7.01075503415948   -0.59996492167720   -2.16411434330548
C         4.99094237368176    3.05289541992045   -2.23193944617316
C         5.83094785237111    1.22616852161368   -5.78316121712402
C         1.52780560092199   -1.27667245914172   -5.26411903253632
C         1.87191129957010   -2.04853307093126   -4.12396258531354
C         3.27550369482672   -2.25742637245686   -4.12892679722195
C         3.79516296681619   -1.64568862020786   -5.30284235007013
C         2.72519904204146   -1.03098386099849   -5.99963292886025
H        -0.81918711911557    0.92578179270449   -1.78792823718573
H        -1.04345378063312   -0.80982359499568   -2.11543796344924
H        -0.07593643481215    0.20336156572888   -3.23298410215770
H         1.21472584151901    1.63596944691029    0.34453192949341
H         1.63916786009508    3.27799029994707   -0.21673376293104
H         2.89287329842629    2.21173121682201    0.47780778554216
H         4.07823457881954   -2.08627677562506   -1.14662646639912
H         2.42149316216074   -2.31756898103918   -0.50371934939069
H         3.74538948470995   -1.84159567623549    0.58627933953588
H         7.39308786083191   -1.61918204958345   -2.16628905958879
H         6.96546633899983   -0.21670332072856   -1.14626465793222
H         7.65136627244615    0.04178353116191   -2.76834361999651
H         3.93430174925542    3.25613023063369   -2.41026363682920
H         5.59228632231860    3.45736454247750   -3.04597869330860
H         5.30220072587036    3.49662736443015   -1.28797613415942
H         6.40999692967459    0.39721655637799   -6.19264009219607
H         6.21520287280213    2.16533061832757   -6.18044565352053
H         4.77614309902443    1.11821312598374   -6.05766000273984
H         0.52460324013907   -1.08131433819473   -5.61903678344304
H         1.16902490712582   -2.50587874145767   -3.43943594374248
H         3.81091367270302   -2.96095122831193   -3.50673053474319
H         4.80823006727850   -1.75330733653585   -5.66685493907091
H         2.77264044260121   -0.61093730051697   -6.99560441935902

