47
CSD_code = JIBPOZ | q = 0 | S = 0 | Stoichiometry = C23H17IMnO4P | MND = 6
Mn        2.61830711525330    1.67291630768527   -1.69640586958317
I         3.46242870691444    0.30616169999643    0.47478997362391
C         3.73929024247050    0.65262120626314   -2.66712978278763
O         4.43614181104069   -0.00493882331441   -3.28741634027982
C         1.58689483757163    2.69569314481783   -0.65274041783341
O         0.86363286872997    3.32530413336949   -0.02333892261293
C         1.29342138173280    0.48649619574113   -1.87460987456328
O         0.43537924882836   -0.26065640928692   -2.00432946196669
C         2.07653947013575    2.54781260311434   -3.13524441151530
O         1.66860665695807    3.07006817378338   -4.07696990007868
P         4.09719691503537    4.81114839484536   -1.08469478380886
C         4.38291427025675    3.09604591435452   -1.44913559718763
C         3.45429164614715    5.13003500653678    0.56946624461454
C         3.44925213323592    4.14247182652401    1.54653532164308
C         2.97653849853423    4.44004096337619    2.81297596327124
C         2.52603005448625    5.71644238334697    3.10488827654581
C         2.55702345296198    6.70894632992621    2.13565344792000
C         3.02573121664685    6.42268309321237    0.86865967905585
C         5.61102614872211    5.81506051880878   -1.15969129949032
C         6.78446984709376    5.26841722838234   -0.64947296440312
C         7.94832601054671    6.01487921037154   -0.64813598393866
C         7.94244507204997    7.30725945652391   -1.14836937379280
C         6.77132933568871    7.85635896473415   -1.64581804953944
C         5.60301049166961    7.11624976394218   -1.65104043335980
C         2.97543859788940    5.49587900760131   -2.32186715882306
C         3.47182864103906    5.62927594208273   -3.61764627572693
C         2.63777680178672    6.05812859350377   -4.63155595387301
C         1.30993010173928    6.34873194207370   -4.35761679886221
C         0.81657906358487    6.21515443789681   -3.07037365976869
C         1.64432510135537    5.78743228372793   -2.04686447648892
H         4.97561764895823    3.14407797845156   -2.38315902427663
H         5.06458065683730    2.73629147701413   -0.65997660939777
H         3.79809922097299    3.14468676101882    1.32744644056484
H         2.95854076438512    3.66704278994592    3.56580859591944
H         2.15040938562232    5.94280355132547    4.09140557060589
H         2.21382478028344    7.70602462283567    2.36903308284795
H         3.05925240194622    7.19047591933378    0.10637465285427
H         6.78379691334739    4.26097547929161   -0.25620364627633
H         8.85959560357857    5.58851940842939   -0.25659804643004
H         8.85184116552879    7.88887435065085   -1.14889476170699
H         6.76723298116563    8.86497517372448   -2.03154125711871
H         4.68998741114057    7.54275495720972   -2.04341376722460
H         4.50912352503473    5.39187692557638   -3.82007706810204
H         3.01850469028626    6.15631215327270   -5.63705047720592
H         0.65643530479128    6.67390184962173   -5.15287070691576
H        -0.21957595275938    6.43568359024993   -2.86168169686188
H         1.25862775878341    5.67810351811111   -1.04280239768397

