47
CSD_code = JIBPEP | q = 0 | S = 0 | Stoichiometry = C23H17IMnO4P | MND = 6
Mn        2.72162233060005    0.84459689143760    2.05046701293833
C         3.47696773441742   -0.22141338978128    3.26751090454098
O         3.86993187111436   -0.93630008626490    4.06879246866932
C         1.76504572774547    1.87969353032034    0.94380276977638
O         1.12577675145253    2.44931835074420    0.18506707748424
C         3.80361312212347    0.28456325567989    0.74061583558929
O         4.51218309382219   -0.09316747944003   -0.07699654327424
C         1.45699015231549   -0.39847899630494    1.83689280722144
O         0.62777115233194   -1.17984569610959    1.73257349034666
C         1.56694882791892    1.46047517819688    3.80269981545892
I        -0.53699678376617    2.01921161563023    3.55990859621925
P         4.15363429873051    2.57143422798738    2.61049514820776
C         3.57288697222367    4.27901195320057    2.87845500883866
C         2.25627971994341    4.65967735720560    2.65779927631025
C         1.87418762443669    5.97800706691880    2.84134059751480
C         2.80616736559531    6.92127901444369    3.23631363615439
C         4.12609761416529    6.54801844488098    3.44512272574164
C         4.51264514362176    5.23499121315080    3.26500780716917
C         5.08260419861551    2.20997681575236    4.12854175813084
C         4.79542795852950    2.82168235953311    5.34363991130363
C         5.47597129625802    2.43506274321541    6.48551619787685
C         6.43514045818013    1.43849451027776    6.42332883877669
C         6.71409004299764    0.81562565774492    5.21608655754181
C         6.03490064866966    1.19191555865504    4.07403902341797
C         5.44711146909141    2.95099453624956    1.37950301878242
C         6.79115210249349    3.13421648661515    1.68300792239858
C         7.68132016379907    3.47719502271033    0.67999071701722
C         7.23988819571082    3.64972552854921   -0.62082815785231
C         5.89747842266423    3.48625522334559   -0.92412214598134
C         5.00539276278285    3.13953226451992    0.07160309634593
H         1.50790244994502    0.68735509695595    4.57441268932647
H         1.99570901177302    2.34490894375152    4.28689104853124
H         1.52186759454478    3.93168655441561    2.34730513111666
H         0.84590231975351    6.26171099186649    2.67587076744341
H         2.50799237766304    7.94892427454348    3.38006629322867
H         4.85586806694513    7.28439805154782    3.74809736297220
H         5.54200150993406    4.94305077629929    3.42463240962904
H         4.04484913487877    3.59867102000330    5.39770257879803
H         5.25080784027954    2.91160060899736    7.42813777496799
H         6.96107992625527    1.13919861234414    7.31741381443229
H         7.45408545010949    0.03055680346180    5.16847520582030
H         6.23274958781744    0.69776539555250    3.12874280319220
H         7.14876458961302    3.00367048178542    2.69490662971989
H         8.72631508324629    3.61041837276650    0.91881341258973
H         7.94106695681035    3.91279144028230   -1.39843483728201
H         5.54776236874412    3.62560479542396   -1.93607757171407
H         3.95334529310104    3.01213862094833   -0.15933068543684

