117
CSD_code = JIBRUK | q = 0 | S = 0 | Stoichiometry = C48H64N2O2Pt | MND = 4
Pt        5.87444122065002    6.08655527386411   21.64273909665701
N         6.30478322211112    7.30060962985879   20.21595552283219
O         6.49513140902938    4.76033431626708   20.30955552948753
C         7.12363825976431    5.31052390355017   19.31111965385549
C         7.01174445942351    6.72751948203173   19.19509513665702
C         7.58919940022795    7.41460593180106   18.12109816088570
H         7.50318427556377    8.48853986928824   18.09989320020815
C         8.27957515893178    6.71679369323881   17.15719978128996
C         8.37341839231266    5.31728725720687   17.27715426373957
H         8.91478419176283    4.78864542901885   16.51177297913491
C         7.82966432714490    4.59228239753852   18.31368657937417
C         7.96099852290254    3.08235514961684   18.43392504013977
C         8.94624778681986    7.39545898346587   15.97042442453654
C         8.63587574579315    2.74748681427519   19.77104614355285
H         8.74690289291917    1.67012562095692   19.87425061838499
H         8.03807242212273    3.11352943778488   20.60019092635573
H         9.62227844215657    3.20523501772169   19.82129242163345
C         3.54728763932218    9.92147784361051   17.13590690265614
C         4.96426475218647    8.67933102795447   18.78770459228661
H         5.03161840252872    7.87352437235562   18.07190125791551
C         4.22624790760978    9.80952936585141   18.49142205253521
C         4.13654973154185   10.78926515449954   19.47835612526914
H         3.56792325438646   11.68957697455892   19.31597040901655
C         4.77085169674311   10.62124637483779   20.69091751342928
H         4.67548334300889   11.39083553166312   21.44346209091362
C         5.52041738348053    9.48619566065069   21.00074863438915
C         5.61260912115371    8.48200132350617   20.01463322061910
C         6.55710988918430    2.46310969000766   18.39472212904154
H         6.06250022247005    2.70707085248278   17.45612937300186
H         5.95580873594323    2.84172674721788   19.21549319606637
H         6.62272043595748    1.38065020805664   18.48179138107268
C         8.79478736100145    2.46784395340228   17.30638449620131
H         8.33487581850419    2.64124743483055   16.33584729479045
H         8.86172764707887    1.39229220150275   17.45683931183031
H         9.80589146474497    2.86934215350322   17.30156221385965
C        10.44767263774630    7.07551383144323   15.97878500538130
H        10.62909688460982    6.00937130139615   15.87853351950327
H        10.89648958932266    7.41168510294222   16.91097215609510
H        10.94292695173813    7.58297885075011   15.15350340823587
C         8.31001072345584    6.87332538878797   14.67420709431918
H         8.76835466492607    7.35308036423015   13.81197175411689
H         7.24421305510309    7.09206839285080   14.66402788546000
H         8.43761219793042    5.79923354330793   14.57416127553847
C         8.78639107891451    8.91806114914498   15.99961464953443
H         9.28360602245624    9.35118167827829   15.13393924536381
H         9.23822500161517    9.34048217759358   16.89390982068059
H         7.73801108396814    9.20326670741231   15.96168176969227
C         4.60789068881210    9.79921866675247   16.03256116607178
H         4.14330671923013    9.89797075974816   15.05376576101036
H         5.11180713509975    8.83728249886102   16.07314817144832
H         5.35387578884418   10.58454526661486   16.13995080129171
C         2.52148933569175    8.78799739208607   16.99872744214907
H         2.01215746475961    8.85778997866031   16.03992347813945
H         1.77859163969677    8.85559091760142   17.79064486076790
H         2.99825231573848    7.81382931690719   17.06195017288207
C         2.81926838495917   11.25581340046362   16.95423142382209
H         3.50871593403411   12.09246505041464   17.04136133392845
H         2.02379616914646   11.37059879682330   17.68664867921723
H         2.37016757110482   11.29171371828123   15.96381991853321
N         5.44387800802720    7.30059974172704   23.06946628892918
O         5.25330783817444    4.76034777605859   22.97571835225301
C         4.62479277803105    5.31054070566357   23.97414584017631
C         4.73677478479177    6.72752460006230   24.09022814024928
C         4.15912648243819    7.41463402205419   25.16410528823800
H         4.24516835726534    8.48856551025734   25.18531180936798
C         3.46847007970220    6.71685676473387   26.12782659368912
C         3.37467760418913    5.31734209741302   26.00790689318043
H         2.83316358847373    4.78871961977991   26.77319712896392
C         3.91860675245249    4.59231807073618   24.97147976594466
C         3.78710825133797    3.08241522957930   24.85111572557426
C         2.80133376684224    7.39558939345150   27.31430420221679
C         3.11201893730056    2.74783727839238   23.51402511859808
H         3.00076666579203    1.67051200959907   23.41069355245005
H         3.70980846669050    3.11387242084643   22.68486466808591
H         2.12570166057168    3.20579026704671   23.46394213762278
C         8.20103891760842    9.92166219399441   26.14967022022616
C         6.78421431516701    8.67940046476181   24.49781287758364
H         6.71688867823094    7.87358036550194   25.21360469006296
C         7.52212268510153    9.80966118677407   24.79413643955774
C         7.61178997309344   10.78940528674439   23.80720650061447
H         8.18032786983374   11.68976685741568   23.96962700449007
C         6.97757167786215   10.62134044749711   22.59460679957440
H         7.07290962260287   11.39094578332127   21.84207504980658
C         6.22812526447757    9.48622477994045   22.28473085188509
C         6.13595699581306    8.48203120031534   23.27084533893622
C         5.19090145081868    2.46294109611460   24.89007394955206
H         5.68564657887303    2.70666968447680   25.82865524447676
H         5.79218462600317    2.84158349906127   24.06930381622148
H         5.12510124135837    1.38050631443126   24.80283770360372
C         2.95337660198648    2.46787985743430   25.97868451877285
H         3.41336616071404    2.64123766231178   26.94919293803179
H         2.88639821483187    1.39233612791534   25.82818993993340
H         1.94228179200662    2.86939806693194   25.98359920537425
C         1.30000002071597    7.07519627320545   27.30565480956885
H         1.11885145603173    6.00906149095696   27.40646981821639
H         0.85137568909254    7.41070203614454   26.37313524029416
H         0.80433522523817    7.58298476950201   28.13049052194165
C         3.43740859964978    6.87394151806590   28.61079239158597
H         2.97850484930411    7.35353889042474   29.47281849581864
H         4.50308227261644    7.09326794285136   28.62131439326770
H         3.31035698256909    5.79978912577455   28.71089357716962
C         2.96072641895488    8.91823462683243   27.28478326330986
H         2.46311396598686    9.35141786901502   28.15019851518885
H         2.50902890604862    9.34027708782895   26.39023956530718
H         4.00900465592017    9.20378674965860   27.32296246405592
C         7.14045918311303    9.79916683654739   27.25301265364990
H         7.60505101402047    9.89784851417661   28.23181103203917
H         6.63662501040098    8.83719274967473   27.21232457066249
H         6.39439663921353   10.58443471074290   27.14572863392473
C         9.22704519839075    8.78836058330523   26.28678056339194
H         9.73639541661623    8.85820941906939   27.24557088124267
H         9.96990813018060    8.85611557721431   25.49484313480572
H         8.75045221756554    7.81411078880906   26.22353440561745
C         8.92881957938746   11.25611877112715   26.33142473442187
H         8.23923582208286   12.09265606319998   26.24426861481873
H         9.72432257344550   11.37105916437671   25.59906454911843
H         9.37784950957604   11.29207272980273   27.32186610951761

