112
CSD_code = JIBREU | q = 0 | S = 0 | Stoichiometry = C45H57N2O4P3W | MND = 6
W         7.74582342049400    8.26369761990419    3.97574712780825
P         8.61131149285827    8.82755277920028    6.23135110491227
P         8.68399562985615   11.64318407513405    5.26384389305314
P         9.40687057568253    9.86425733249114    3.11756886994345
O         9.82247957728876    5.96034583290182    3.50943266036861
O         6.51216308480782    7.45414281169581    1.22859323381150
O         5.88675195194049    6.05436517859927    5.15173390753677
O         5.50711170028502   10.44374756461264    4.27095221145774
N         8.40518873847243   11.09848642240840    7.88139825159607
N        11.15653224645950   11.83828433835191    4.03148799222639
C         8.60546762034457   10.47114402820752    6.69683672581092
C        10.03672667863295   11.06669201329832    4.16586581214831
C         8.11128245285486    7.73562597714669    7.60182152413693
C         9.05838458794449    6.82157788713215    8.07927206350944
C         8.69352715867893    5.90795964681534    9.05349913392151
H         9.43000197202550    5.21152756830683    9.43008649695555
C         7.39767809350470    5.86197899177626    9.54921254560455
C         6.45963415901073    6.74350062611942    9.03332266872624
H         5.44034369196739    6.70306146632973    9.39251441118841
C         6.78844549995628    7.67433484004077    8.05840080656019
C        10.44824297184702    6.82092869180411    7.51857053381375
H        11.09492005319160    6.14551626159592    8.07398777612048
H        10.88242145955422    7.82179725890486    7.54185135255696
H        10.41995032467419    6.49407083821846    6.47708846159232
C         7.00837605750025    4.86060596554883   10.59311592726491
H         7.87510703919892    4.53547018177289   11.16395926429642
H         6.56719993716835    3.98430363230150   10.11745528588192
H         6.27007141811745    5.27768739149407   11.27496377049936
C         5.71502290302629    8.57554119022723    7.52710567401947
H         5.12867285042753    9.00269092102196    8.34048972586592
H         5.03694028240705    8.00160830382545    6.89511363310367
H         6.13337435940289    9.38437271583555    6.92936419049078
C         8.18831734364362   10.48138103358248    9.16562434938517
H         7.59523177684627    9.58027588438732    9.00967384283469
C         9.50004185768520   10.07466749187267    9.84571626082209
H        10.10628029133655   10.96512422900417   10.03400202861125
H        10.05752875428156    9.40901518051949    9.18433575781575
C         9.19572793645336    9.37086870609944   11.16307773511694
H         8.62550199665628    8.46208440330173   10.95749008912739
H        10.12727729089353    9.07860032275891   11.65161162626512
C         8.39171703997640   10.28777648661274   12.08055421485293
H         8.99283098943967   11.16462767586712   12.33375351939245
H         8.15416848743004    9.76689057262010   13.00966447314430
C         7.10365171190391   10.73832778856073   11.39741158086370
H         6.55231220288069   11.41652457034070   12.05141515332008
H         6.47327314135541    9.86679250595494   11.20780674017856
C         7.40931022749106   11.43170712086806   10.07257556175110
H         6.48143725861150   11.72946702707658    9.58010589723913
H         8.00049850820246   12.33389723909648   10.25447012124869
C         9.47519639443370   13.10531534972952    6.06774304941104
C        10.65080398521596   13.06900840293277    6.83480751112159
C        11.12675038219730   14.24841130362642    7.39430485611422
H        12.03113067206279   14.21332633349224    7.98639376995464
C        10.48082512554720   15.46141851996916    7.21227345322975
C         9.32789348395452   15.48422047385050    6.43948560803849
H         8.81491273919336   16.42238598912703    6.28178905621397
C         8.81878764390526   14.32955141358659    5.86790882283527
C        11.43929235355657   11.81542272566700    7.08221364327436
H        12.45837288833625   11.93868676903708    6.71607277664786
H        10.99975004590374   10.95150113279469    6.58994177697980
H        11.49801111020318   11.61369589246867    8.15124807331997
C        11.03208899244359   16.71294989868805    7.82176384389345
H        11.30767464323364   16.54499991250998    8.86130567929660
H        10.30684085839533   17.52119021734692    7.77536839908157
H        11.92909125074485   17.02579607226178    7.28682908765103
C         7.57326334293055   14.39141693538033    5.03750567393994
H         7.18839839358086   15.40727900580775    4.99078863249364
H         6.80208164156649   13.74397750505441    5.45540735757150
H         7.77457103664300   14.04763763587354    4.02244252735787
C        11.81378886071684   12.05944213700439    2.76054122522550
H        11.90075490453480   11.09607633405279    2.25211038632510
C        13.21319092261467   12.62392273579177    2.99008171591717
H        13.78447802916384   11.94502172883693    3.62650804364424
H        13.13898783188529   13.58766901203038    3.50228030721929
C        13.92028583624665   12.80421609534229    1.64952803139647
H        14.91845739973292   13.21615981745395    1.81025593996133
H        14.03164593598267   11.82816932948060    1.17170815789271
C        13.11779383858977   13.72619681033602    0.73555177789621
H        13.62258759944676   13.82178159520169   -0.22732585893548
H        13.06120394274767   14.72135984902251    1.18344750867151
C        11.70636706170881   13.18342803020477    0.52924118982445
H        11.75918346374189   12.21535399790611    0.02566075652060
H        11.13383473447368   13.86302020202009   -0.10502038176709
C        11.00707354105174   13.01161226075494    1.87215423227512
H        10.91201853326233   13.98076079067072    2.37129999560444
H        10.00144424245621   12.60428847077944    1.73381042680282
C        10.75649111179808    9.15977914649118    2.12851031441933
C        11.88654820840048    8.58681418824461    2.72790002528670
C        12.82776175022484    7.96662163566697    1.92152697368517
H        13.70239608167943    7.52519258992317    2.37958913464026
C        12.67297681876128    7.88748009529885    0.54471913429003
C        11.53767967665217    8.44247993662782   -0.02966981600721
H        11.39814382862165    8.37748774908936   -1.09992819724897
C        10.57507253319730    9.06977777627640    0.74271710788536
C        12.09851860859485    8.64955638874750    4.20790209845272
H        12.78015825275343    7.86598816867723    4.53169891748499
H        11.14871496679384    8.53209938004296    4.73483119194834
H        12.52108679557737    9.61451295679048    4.49197597645873
C        13.69837228762833    7.18887508414194   -0.29491613595445
H        14.70271157125101    7.38728308913738    0.07436626241799
H        13.63350110767966    7.50511568708526   -1.33328038180874
H        13.53489485613996    6.11147463831769   -0.25740162409361
C         9.35239678699043    9.66447717906926    0.11645117928580
H         9.33159022000173   10.74523728230998    0.26527702602970
H         8.45626205602109    9.24732842160129    0.58040688805009
H         9.31933292716254    9.46046176428913   -0.95118233839005
C         9.09682551688180    6.82439491386207    3.71835677848448
C         6.99316997499520    7.79251480593063    2.21790927988675
C         6.55756253546383    6.89287618459116    4.74071592929106
C         6.35358768399960    9.67542523756394    4.17207486664357
H         8.67946258723104   12.07390035071104    7.91756290639739
H        11.16032078846215   12.66658607171000    4.61826346104693

