34
CSD_code = JIBTOD | q = 0 | S = 0 | Stoichiometry = C6H16CoN5O6 | MND = 6
Co        6.18443670391509    1.50987066630901    8.94088642096260
O         5.26456526762397    3.47428156410627   10.19685180329813
O         7.18267074200618    3.86291149352085    9.27678730542044
O         5.49473186210874    2.67500789445169    6.76590534698967
O         7.36713562534375    1.61520760604442    6.67475248651748
O         6.04081465512212   -0.41126633400271    8.49685556293405
O         4.60249895755328   -2.08899723081586    8.31167189231494
N         6.22380011262220    3.15781491051231    9.51436222701429
N         6.37531280501634    1.99661350844367    7.24545526572092
N         4.14351176445889    1.40930817653183    8.67425035747479
N         5.99344872250837    0.81032594698968   10.99959489651975
N         8.18672101361957    1.23564634120131    9.16535015649265
C         4.88816323837776   -0.91235869749608    8.28648470763887
C         3.79221771927889    0.16369908639621    7.96085132352373
C         2.39512998797246   -0.32648825260504    8.30168736867441
C         7.00687796492384    1.13578453708260   12.00970255587606
C         8.39563813784630    0.68515190712857   11.56953687766484
C         8.93620394053982    1.49617154936789   10.39671006754636
H         3.80344251779362    2.21531389218292    8.14519447726377
H         3.64357683022667    1.42409345212573    9.56467558562740
H         5.95383599680120   -0.20375899492781   10.88741200230014
H         5.08977097688754    1.11043213513335   11.36044295703536
H         8.65077476430611    1.72367584004608    8.39616887917644
H         8.24480490608775    0.23901801143580    8.93851534439269
H         3.87345955293174    0.34771199318341    6.88348473304791
H         2.28267756936162   -0.44135964629856    9.37915556341533
H         2.24817159194795   -1.30265398090780    7.84780626629858
H         1.63340761745484    0.35808732200114    7.93329839645510
H         6.76490493974835    0.65518596680843   12.96708540550985
H         7.00020969247139    2.21781751360695   12.16462989340150
H         8.36033191919430   -0.37118055389839   11.29297852335834
H         9.07881703247587    0.79135167159320   12.41250679500531
H         8.87433327490581    2.56512501456793   10.61656476593882
H         9.99290159656770    1.24135569018091   10.24938378918968

