56
CSD_code = JIBZID | q = 0 | S = 0 | Stoichiometry = C16H35MoNOP2 | MND = 8
C         6.12332193979369   -0.96236549468760    6.66593140450809
C         8.63081158483828   -0.93088918832453    6.46422123491523
C         7.23168936733225    0.57385747685790    5.00786421540402
Mo        7.59070137325749    3.11484829661875    9.63190204705331
P         9.98330236342387    3.13444595098836    9.39137897155823
P         5.23520467200673    2.84343102067890   10.04125999394084
O         7.75889228898765    5.27937447468086   11.82662650023183
N         7.41697207815003    0.92633819197081    7.35966355438402
C         7.68694027430735    4.51499916840335   10.96905583980498
C         7.98356672009791    4.59397805927917    7.96397621963417
C         6.58854379115490    4.50781607515855    8.15485469968053
C         7.85734607253745    1.15042756851138   10.69622000231062
C         7.92529698485823    2.17301103786724   11.66243679595605
C         7.47917869761949    1.74581828950469    8.19114231505823
C         7.35180208017641   -0.08905641977498    6.38460585384229
C        10.66115634470512    2.18360012832619    7.97761919571676
C        10.88074495917036    4.71876058465778    9.15892406885274
C        11.08506524283522    2.46429655965820   10.70959278177507
C         4.31928579418387    1.80339104416760    8.84079345401906
C         4.12808636358770    4.30671011605766   10.09315368906895
C         4.61485671665168    2.06047251027751   11.59156972749351
H         8.39051703307247    4.19497848711448    7.03558320073579
H         8.44776852875038    5.52955637272652    8.26197312199403
H         6.11154730724347    5.38545479200486    8.58121021191400
H         5.99938480706453    4.04759752196457    7.36255355495963
H         8.76995159641058    0.61013729540412   10.45280995006280
H         6.98577154583776    0.49902304496979   10.69600518896452
H         7.10558999576662    2.27066963031634   12.36604264804804
H         8.88449264020331    2.38142421391190   12.12396295198022
H         5.21419685326455   -0.36788972388295    6.60797085952091
H         6.19108041705659   -1.39761569252983    7.66068921612022
H         6.06246392121137   -1.76574825616730    5.93613302007781
H         8.74254138914019   -1.35231187325935    7.46117660568845
H         9.50228455664514   -0.31731858687107    6.24662596658289
H         8.58722299425495   -1.74347977558913    5.74324465654016
H         8.09412607308024    1.20922194142093    4.81821946506832
H         6.33589893882165    1.18952410431427    4.96175882438586
H         7.17700928279526   -0.18461055750816    4.23111798285197
H        10.17333526201955    2.51271014966534    7.06215423133946
H        10.43360431981113    1.13031262617732    8.13638369504871
H        11.73976242125729    2.31845407899719    7.89014736823995
H        10.53330026236982    5.42693782860707    9.91049572398776
H        10.67812315195163    5.12222668196295    8.16951581143839
H        11.95457760006413    4.56532414588619    9.27295381432470
H        10.78640374263330    1.45656242874470   10.99227935012424
H        11.02100746427990    3.11399547783646   11.58242860450059
H        12.11698186470126    2.44421695294867   10.35612337393015
H         4.70188646229222    0.78597904056682    8.90977605930396
H         4.50180320267407    2.17811706982258    7.83551595083118
H         3.24866754326697    1.80941926121501    9.04790724814537
H         4.00555599293595    4.71874379800455    9.09414869555261
H         4.58034100035861    5.06078592570800   10.73645483682331
H         3.15138771471080    4.02806566279536   10.49058204418645
H         4.83053838450179    2.72379496888162   12.42918592122157
H         5.09771036378331    1.10027337934992   11.76355476435996
H         3.53629965610003    1.91020213359750   11.52552251592481

