44
CSD_code = JICCAC | q = 1 | S = 0 | Stoichiometry = C18H19ClN5Pd(1+) | MND = 4
C         2.56530637015952    5.50851866754964   15.89354946033692
C         2.34154226407894    6.78007700986633   15.26839383194254
C         2.02983726551726    7.86186801039508   16.04627704329649
H         1.82565049443935    8.81293108527125   15.57336870981224
C         1.90181085490479    7.74814406677914   17.45882263585565
C         2.13179633581510    6.48126784181701   18.04873278658963
H         2.07623331439570    6.36967157048638   19.11805056819431
C         2.45566477725529    5.39258760459613   17.28974469659792
H         2.64201390224632    4.43362162520957   17.74625904226982
C         2.93464628035079    3.73719553852305   12.91651709581734
C         3.54027456142004    2.50344409819048   13.16705699392353
H         3.94850611313476    2.30920720784770   14.14637050056024
C         3.61949322485890    1.56243758852066   12.16115114820770
H         4.09571195482174    0.61195487364926   12.34067859471225
C         3.08166089099668    1.83875598058835   10.90877316067230
C         2.43823020308457    3.04856523230370   10.66070790200878
H         1.99499810928449    3.23115977232513    9.69461523200922
C         2.36669086940569    3.99478133022150   11.66021727094319
H         1.83502267528743    4.94042149857276   11.50054780299351
C         1.54337835262589   10.14941535768763   17.66098272272556
H         2.42633740452715   10.32523012566980   17.04517803822503
H         1.55241558970366   10.87274888878081   18.47269593821980
H         0.64646484444320   10.31961012473123   17.05739835845938
C         1.20704972123268    8.66952294483498   19.60399960215706
H         0.55245339471938    7.80924461460158   19.74411488750317
H         0.66932956644048    9.55607522777064   19.93139755646271
H         2.09236305752284    8.54894920772777   20.23501694268311
C         2.62308877350282    9.56437185703415   12.34366879336805
C         2.55682745325281   10.87764517592369   11.79522671562004
H         3.21478064324069   11.54366272929854   12.35394188742571
H         1.53404035072852   11.25072106426316   11.85292426858742
H         2.87134011487869   10.85753652478441   10.75168096683993
C         4.91261021080142    5.71786711238371   10.89895537999624
C         5.78390893699033    4.98130797546692   10.04963759588203
H         6.76937291652766    4.90415847859976   10.50845739949143
H         5.87396177511977    5.48284183253941    9.08597315637151
H         5.37702491790916    3.98040970178449    9.90044451239656
N         2.84424157539686    4.74481692767216   13.86156319346659
N         2.80355911404327    4.44948236909624   15.10229634401525
N         1.56508225808394    8.81512894739028   18.21172822946555
N         2.67396485459673    8.51282610694719   12.80442927477258
N         4.19742915273772    6.32331892744098   11.56262691967858
Pd        2.81574857915943    6.61259309773300   13.30880851031800
Cl        3.20873598027662    0.67200407724124    9.64531832913101

