50
CSD_code = JICCIK | q = 1 | S = 0 | Stoichiometry = C22H21N4O2Ru(1+) | MND = 6
Ru        6.31130353994657   10.47397494254102    7.79658711639675
O         6.32876652611601   11.89930921393702    6.25895010140700
O         6.18600652911629   11.96141852817657    9.20258081967925
N         4.32173960200728   10.25100807907395    7.94677920073747
N         6.28910897631286    9.28520934290400    9.24848010674218
N         8.28931778206668   10.40302733597888    8.13164124744925
N         6.42887229551668    9.14544072671465    6.40523078426257
C         3.36713622799259   10.80694242076417    7.21063719315306
H         3.70632250348900   11.43092655151648    6.39173026261250
C         2.01931043094895   10.61233955732149    7.45775914395860
H         1.28027041869119   11.09031215103157    6.83595771371361
C         1.64678669555743    9.79583116954376    8.51725902656265
H         0.60593003825968    9.62111317309427    8.73907989526517
C         2.63600638035719    9.20965936964347    9.28694438522370
H         2.37561718067913    8.57127700104630   10.11519443523605
C         3.97469199015582    9.45301200033924    8.98792807666323
C         5.10184206527966    8.91149788302845    9.75207195698021
C         5.05030636856725    8.13373536761109   10.90553460576070
H         4.10727473973510    7.82153075005389   11.32218987466901
C         6.24082927313417    7.77808805192067   11.52481947763221
H         6.22252333173444    7.17222150725161   12.41646926111119
C         7.45302412829246    8.22637362013380   11.01780667174967
H         8.37432297768115    7.98633410796151   11.52177816016321
C         7.44956055501449    9.00167107552652    9.86157911539170
C         8.59828638030434    9.62946390288618    9.20276005446468
C         9.91846403923051    9.48535548647396    9.62351474288136
H        10.14892629612257    8.86575005198876   10.47458771614947
C        10.92756198137687   10.14518238651354    8.94456362771661
H        11.95398078724102   10.04725276210927    9.26075244783779
C        10.59368270208458   10.93459116845500    7.85217960530019
H        11.34893712172441   11.46711204093295    7.29785374433374
C         9.26317597074024   11.03010764765922    7.48313507822939
H         8.95451798846076   11.62995696315803    6.63464959033771
C         6.28777425644189   14.01534404730629    5.21157512009420
H         7.13009247803522   14.70182625292192    5.25227869338702
H         5.37699534127525   14.60677209436809    5.15390011902366
H         6.37063574858725   13.39301454537869    4.32430792928299
C         6.26447571320943   13.14514289567186    6.44759620059629
C         6.17404886915514   13.79914794334854    7.68340160686082
H         6.12611568096836   14.87651650703018    7.65861090410289
C         6.14129084934171   13.20132338622127    8.94208605551654
C         6.04059903132832   14.11772388683773   10.13982634613482
H         5.12274796203820   14.69892739477323   10.08770401516066
H         6.87857015973125   14.81058739408877   10.15244659298251
H         6.04318783793457   13.53056109798059   11.05473072141460
C         6.50114460676427    8.54494002401262    5.42381091074685
C         6.59188779041315    7.77255904896831    4.22567164682772
H         7.15984869264677    8.32550417170977    3.47738871130083
H         5.59339357385663    7.57113367884093    3.83744233746047
H         7.09458758433597    6.82684929324930    4.42883684933765

