43
CSD_code = JICJUD | q = 0 | S = 0 | Stoichiometry = C15H18Br3O6Rh | MND = 6
Rh        6.02478195005230   10.43513215038403    2.68754988661704
Br        1.25295372439016    8.46140035660776    2.67744909322520
O         5.08738969259229    9.10986096261598    1.54257321744065
O         4.42337665954525   10.70353859436629    3.83186736721676
C         3.88995369598656    8.73397857762404    1.68186251904965
C         3.01868415968206    9.18952335983002    2.68268198407805
C         3.31073259081496   10.12419478239569    3.68742178211857
C         3.40840362831523    7.71965343477749    0.67850625067458
H         4.22064338185276    7.49038273558673   -0.00638193079538
H         2.56198027365208    8.11424820997349    0.11885805976652
H         3.08545358048337    6.80925059701370    1.18073440106279
C         2.25081067780649   10.49775096329426    4.68968943989007
H         2.66360373698542   11.22705883991784    5.38180763846414
H         1.92480161860934    9.61749687876889    5.24119820925811
H         1.38270696642512   10.92116965259224    4.18721079342276
Br       10.12033542311070    7.28980053337249    2.67765720503050
O         7.64154533162679   10.28644096707901    1.54291890461986
O         6.59356438202618    8.91452963857476    3.83218968397716
C         8.56571992049299    9.43723921751011    1.68199738508755
C         8.60689628301809    8.45489109702345    2.68277818651650
C         7.65155543803897    8.24056844215164    3.68764772752464
C         9.68480819839048    9.52724748401755    0.67847836464887
H         9.47726137362531   10.34531706438596   -0.00639601581661
H         9.76617312981559    8.59692564188885    0.11880607721600
H        10.63479335271487    9.70266544013495    1.18059369724756
C         7.85792641275747    7.13575735915637    4.68979201977999
H         7.01999583486419    7.12867252194602    5.38198925866555
H         8.78331859444593    7.29345915412606    5.24120446290291
H         7.92512668314282    6.17223846675971    4.18730585936136
Br        6.70132036938796   15.55492126312190    2.67784254054343
O         5.34561845049551   11.90987975694613    1.54288842623608
O         7.05774786760353   11.68812094716206    3.83178538359922
C         5.61880768132147   13.13487392178067    1.68201427921356
C         6.44896413017519   13.66170320673724    2.68277937844160
C         7.11237985482638   12.94139703839469    3.68745588567220
C         4.98116141827156   14.05902311370771    0.67857728778230
H         4.37647371619577   13.47024061931655   -0.00629844538993
H         5.74609619227541   14.59472551510198    0.11889074615530
H         4.35422348642308   14.79396963603475    1.18074025428818
C         7.96590757909154   13.67250903124860    4.68971062348393
H         8.39109855505157   12.95036069084175    5.38183137620682
H         7.36662959033288   14.39498985833095    5.24123518587547
H         8.76667441328435   14.21259227740003    4.18725554964020

