69
CSD_code = JICPIU | q = 0 | S = 0 | Stoichiometry = C16H40B10NORh | MND = 10
Rh        2.83013675344138    1.13742451887336    5.42472411362479
O         0.76592279325410    0.92372269310676    4.94505432923936
N         1.11598477127839   -2.08565933505955    2.38930262815473
C         4.67397280620311    0.84492434761022    6.50483933614215
C         3.76504836084107   -0.06766530513099    7.14652079637492
C         2.75195059315908    0.70920256462079    7.74198642590698
C         3.08165170523070    2.10192063562263    7.58751787911393
C         4.28008667819156    2.18758563749577    6.86037626289999
C         6.03438759448345    0.48315506399018    5.99021910714656
C         3.95058384751136   -1.55133092237232    7.26749545498243
C         1.59979482516767    0.21479062090357    8.56177051374460
C         2.34552952811923    3.22197016061490    8.25361786207131
C         5.09597282397595    3.41404076639196    6.59904488478347
C         2.01367184816254   -2.61638963232663    1.32700081840521
C         1.80984974096454   -2.02166768827111   -0.06015647944856
C        -0.28990944897649   -2.05388613301032    1.92889145359174
C        -0.89266345258843   -3.39389861322489    1.51569865988397
C         1.26698046329098   -2.99959971424329    3.55352681314826
C         0.35414318453446   -2.71796893428894    4.74221174183370
B         2.59143532709450    2.06823118500506    2.13351484509213
B         3.67777730495822    1.37311784747712    3.34947183489465
B         2.53392314912221    2.66828904715541    3.77023725514581
B         1.02348482318173    2.40107269826035    2.91065961681069
B         1.22007964996425    0.94767504672527    1.97947630044017
B         2.91458216397390    0.31976167292129    2.10429658958894
B         1.04895074480435    2.26385668344815    4.72956995145647
B         0.37337305573594    0.65780570347358    3.49896645734870
B         1.56976755842531   -0.55400738261965    2.85483787800462
B         3.22902302594846   -0.24060303033454    3.74346754614441
H         6.03901481226368   -0.50792517565118    5.54483971762800
H         6.75237100798197    0.49287118860975    6.81304566386640
H         6.36617144653133    1.19476850545280    5.23965050725034
H         4.47629412024492   -1.95049511622405    6.40302216065287
H         2.99585444994592   -2.06668382306792    7.35967001645509
H         4.54388346542500   -1.78213147005896    8.15564066785100
H         0.67136902224294    0.69668088837062    8.25726247830180
H         1.76608106806464    0.44514096617717    9.61601185377284
H         1.47743579070757   -0.86155498917442    8.46336164323840
H         2.54809366138756    4.16956713630783    7.76049885661726
H         2.65457540564993    3.30631640891276    9.29854687750125
H         1.27153612901056    3.04854320210854    8.23444045525438
H         4.48290321327016    4.31006328922098    6.65104588118218
H         5.55464538102226    3.36987539520623    5.61444299225186
H         5.89084162487910    3.49848779358966    7.34371971413686
H         1.89150667978705   -3.70389205645113    1.26505309822140
H         3.03514680660342   -2.40900014313045    1.64843785468783
H         2.64764151565604   -2.32102894558474   -0.68499559808936
H         1.79084130974856   -0.93857512987208   -0.01651264478811
H         0.89921338612603   -2.37996035559565   -0.53224644283076
H        -0.88732110830482   -1.62621949092565    2.73247444554941
H        -0.34092278512194   -1.35450567910819    1.09579919489755
H        -1.89903255785187   -3.21216224526462    1.14668308857364
H        -0.97034442740297   -4.08458234813471    2.35153019402909
H        -0.33113465321182   -3.87519216334276    0.71978996487650
H         1.09550438212411   -4.02906191456558    3.22001530769896
H         2.30722455195031   -2.93202470935726    3.87932134043295
H         0.67842128695243   -3.33760228275286    5.57543655676193
H        -0.68128940154496   -2.96862354001640    4.52740381863505
H         0.39909004230716   -1.67918109514124    5.05499406783506
H         2.98937757361218    2.75353769722933    1.25841565063505
H         4.83540634718705    1.62018117906707    3.31298532987551
H         2.92660128846090    3.74171370843221    4.07840012468552
H         0.29693582712760    3.25512232401389    2.53731196029891
H         0.57297158464074    0.82994913281878    0.99183586914329
H         3.55060392665362   -0.11077360958154    1.20454583408532
H         0.60984481694685    3.05014375097918    5.50569355941115
H        -0.80453014344329    0.46941622550179    3.47631318198274
H         3.97416542190505   -1.14258567046389    3.95491269355602
H         1.99791551100840   -0.70858704132126    4.02466118735999

