38
CSD_code = JICTIB | q = 0 | S = 0 | Stoichiometry = C17H14Cl2N2NiO2 | MND = 4
Ni        3.74485338549836    6.60890965154228    7.96431847972031
Cl        4.45996110157602    4.26837956295755   11.93087426159664
Cl       -0.02292012775319    6.14378634150377   10.66480390888370
O         4.35506839359271    5.59224218295140    9.37564466219475
O         2.10699494464267    6.68947530357406    8.80531742154201
N         5.34213282875889    6.44092862470545    7.05314535592385
N         3.17816957058847    7.70932956929458    6.59361338686636
C         1.99221759789429    8.18719946870429    6.38658312291246
H         1.83714476469658    8.82303761625415    5.51224786353941
C         5.51304128260506    5.10724430260292    9.59714078497595
C         5.76866854806650    4.40816886088424   10.81692342165511
C         6.99322069505976    3.86972232176425   11.10681549233692
H         7.13663088819312    3.35282461918027   12.04284435172055
C         8.05290420906025    3.98644402940234   10.19817691466405
H         9.01088872613719    3.55599762914495   10.44286642133658
C         7.86283105232243    4.64120524574388    9.01317096233585
H         8.67278354258548    4.73552672283088    8.30399738646622
C         6.61436265839031    5.20702581391833    8.68740457735493
C         6.43334063384312    5.86546434641808    7.44667015961969
H         7.29284711586245    5.87146460684509    6.77299582259345
C         5.29374381810855    7.00490814322668    5.71195202869345
H         6.28003815120085    7.36421117535940    5.39513157482000
H         4.96798776987166    6.22201374244710    5.01501930169905
C         4.26555197503562    8.14232471545206    5.72202403074590
H         3.89192586600561    8.33590024895286    4.70656652732875
C         4.87952530329303    9.42310208471161    6.29567591485416
H         4.13342026304938   10.21281111683250    6.34019108397948
H         5.70886921862502    9.75729652464715    5.67750783254520
H         5.23894585492026    9.23001060806317    7.30671068563053
C         0.86198508891439    7.96645686102253    7.20959012958269
C         1.00986080760132    7.20761812910711    8.41516693140582
C        -0.17003409509138    7.05190632456382    9.20656450450434
C        -1.37308041609163    7.58953670720476    8.83675345596208
H        -2.23584111601986    7.44182858686300    9.46742696227611
C        -1.48689970366581    8.32650055233837    7.65071432316101
H        -2.44244458448499    8.74395870243441    7.37581656726881
C        -0.38931543392821    8.50990415149949    6.85681320382546
H        -0.46528057896437    9.07763480505113    5.94042018347814

