44
CSD_code = JIDMAK | q = 0 | S = 0 | Stoichiometry = C21H18MoN2O2 | MND = 9
Mo        0.00031596577456    1.16661447979688    2.75123883879763
N        -1.29223234949080   -0.54800107899748    2.52340198669669
N        -1.92184364494671    1.34460613402305    1.78861295338355
C        -2.25070264369930    0.06890449965959    1.85861726812038
C        -3.39643020089308   -0.58644011341613    1.13864082068541
C        -2.70248768274004    2.38856687402592    1.32988975854525
C        -2.08486108168280    3.47766795739213    0.71175173495939
C        -2.82831304135405    4.55523068328637    0.27409129567088
C        -4.20204694143210    4.57605079866646    0.44984276965985
C        -4.82206628516229    3.51449608664800    1.08695149451599
C        -4.08616238824762    2.43204162467365    1.52803604323615
C        -1.28087011982205   -1.85663415853327    2.96601012378789
C        -0.05779942096866   -2.52245368559519    3.07280343730460
C         0.00178638383137   -3.81938116814324    3.54121775317965
C        -1.15435108537949   -4.48035318514051    3.92200860872301
C        -2.36911785094104   -3.81999606280774    3.85015774677875
C        -2.43824974747725   -2.52171915360285    3.38342131465155
C        -0.14897651745354    0.59919043427464    4.58705408662055
O        -0.27017095294892    0.28966703376327    5.69094641344168
C        -0.80330854288452    2.54267414338325    3.83472055765680
O        -1.29417068706567    3.33693925600835    4.51097173349248
C         2.18047105503587    1.84213014966375    2.56475343300251
C         1.45800477555733    2.47154249276277    1.51224643623597
C         0.99683054011351    1.46604482124631    0.63782626269469
C         1.42869640863352    0.21937191014252    1.13062976283494
C         2.16029802717759    0.44101996826226    2.31490673207239
H        -3.11700005288557   -1.59979728031799    0.85445726207887
H        -4.28662838370573   -0.64207840578778    1.76346125866860
H        -3.64333613023006   -0.00998651775678    0.24832846391911
H        -1.01342617197941    3.46944589989781    0.58121616913044
H        -2.33269051057507    5.38644576310814   -0.20591306610522
H        -4.78234508426014    5.41916043856105    0.10720317542916
H        -5.88951468559386    3.53296761821715    1.25197203261141
H        -4.57509109438318    1.63271791443490    2.06287862407750
H         0.84658054121034   -2.00678775416038    2.78733681419800
H         0.95727736876518   -4.31835443262922    3.61231363748652
H        -1.10706852285933   -5.49512317525429    4.28668256341739
H        -3.27331063238537   -4.31694811521644    4.17031910437150
H        -3.38516947667278   -2.00528362511367    3.37747690106158
H         2.83247200760725    2.34647059830576    3.27017463122686
H         1.43228834494309    3.53780694659115    1.32731794932378
H         0.52224101730434    1.62548379566901   -0.32330194688368
H         1.33422637174335   -0.72471374490862    0.60708860339835
H         2.75595312242501   -0.29300666508313    2.84243845584750

