82
CSD_code = JIDSOH | q = 0 | S = 0 | Stoichiometry = C37H32BN9O2Zn | MND = 5
Zn        7.76156877756738    4.30427595629015    6.13989383017633
O         3.88750620873750    4.79152941362605    4.74328012390865
O         4.51703567233696    5.80568011941720    6.67142543451294
N         5.97374572724226    4.50407043206998    5.42252083530005
N         9.75122504726077    4.44189080961484    5.67774579449563
N         9.01188692134929    5.48906629336364    8.37045474195614
N         8.00860015367721    2.92536271182470    7.53107876416260
N         8.15321961170066    5.84673541081531    7.39774190556551
N         9.15323066831229    3.00206007932886    8.21961322328357
N        10.55414575521665    4.41954458692931    6.74912434598013
N         7.75669622528970    2.68678165031916    4.55336482566042
N         4.48335851959694    3.91384467313510    3.87445975906484
C         8.04256561719276    7.35602899806705    9.02789740607819
H         7.77175568078999    8.22232968159023    9.59577329869316
C         7.56436041606469    6.98468664755073    7.76483833639495
C         6.65592824329808    2.81206338339242    3.81471194626707
C         9.42121183480462    1.81616671696712    8.79252373855190
C         6.64872482331506    7.70938763084147    6.89576376537362
C         9.96248117651516    4.48619451046780    3.23863069228195
C         5.69336377731140    3.76622478161481    4.32333947888279
C         4.79800642607162    5.12212001449830    5.72535846289839
C         6.29610765982451    1.30442339098479    6.97214581340054
C         8.96235593302464    6.38544858134051    9.37397676122313
C        11.84098444058398    4.46334153241850    6.35942464731153
C         7.53351218918968    1.68679849565768    7.64721547847707
C         8.40613069717338    0.94018735481627    8.44356208360111
H         8.30123085067307   -0.08363123045989    8.73998691973124
C         5.16521936576657    2.10876505176827    7.08705885337852
H         5.19252656370700    2.97904979457755    7.72645843306016
C         6.41516537651546    2.03819731386974    2.68218613135189
H         5.50048436259535    2.18899605262012    2.13363735418257
C        10.51671818164843    4.48910540299827    4.58636254993925
C        10.62140935954868    1.55705805403101    9.62989454597764
H        11.52994221155464    1.65762253810758    9.03781200448990
H        10.57565922233398    0.54921988130946   10.03319978124256
H        10.67592015907695    2.26646240868991   10.45304325256120
C         6.85434289752329    7.70439361801914    5.51893099555515
H         7.71389757075517    7.18473499717488    5.11902831345598
C         4.01312725566158    1.78988227198201    6.39162051905736
H         3.14230698662700    2.42217775118698    6.47930118790651
C         8.72753132993068    5.07189894968601    2.97052390089741
H         8.19438633167895    5.57373276286863    3.76482207531084
C         9.77540103222715    6.28357278767146   10.61428538764851
H         9.59697977368238    5.33144792160714   11.11067743778006
H         9.50759686391699    7.09050270754510   11.29079174305109
H        10.83813341635399    6.35337222310596   10.38750024102298
C         4.71424061064389    9.09884827860772    6.57675363349747
H         3.87518614878280    9.64026929243443    6.98840268120608
C         4.90917375354898    9.06684933933089    5.20629506737090
H         4.22341729159694    9.58114315534268    4.54881311505170
C         8.50225297432577    0.96247627043557    3.09566865618508
H         9.25945579751522    0.23533726604876    2.84840007398149
C         5.57895891237236    8.42813781298723    7.41967757439112
H         5.40770925821429    8.42765892947790    8.48503835439241
C        11.86140237517251    4.50026114956489    4.97702741270466
H        12.72412891989283    4.55672411504004    4.34519156894487
C         3.98250201129328    0.67467439670465    5.57092901815316
H         3.08844376151562    0.43900627092098    5.01366857975864
C         8.65052161905090    1.77710258847491    4.20399039251814
H         9.52141897009843    1.70007379668935    4.84049513842617
C         6.24954223214663    0.16807766993377    6.17029441254892
H         7.12607069037348   -0.45891394506605    6.08328902927855
C         7.36257758465583    1.10351440420155    2.31464719635091
H         7.21800572936058    0.48653622413469    1.44027023234540
C         5.98576303697022    8.37333730254062    4.67897043308581
H         6.14639580924071    8.35369500036965    3.60981238304433
C         8.18583879832285    5.01881241294640    1.70062519155996
H         7.22306670208358    5.46933843472413    1.50976747753893
C        10.65298012800599    3.86608290673087    2.19871870042692
H        11.60975687245819    3.40497108316584    2.39486561173947
C        12.99530957017917    4.47343959568844    7.29526695265049
H        12.93906219598045    5.33266976446427    7.96071646456367
H        13.92143273094786    4.52613155578537    6.72934494279900
H        13.00684943968340    3.57379297021360    7.90775909800407
C         5.09925908426872   -0.13826406547063    5.46711885567763
H         5.07462137769357   -1.01301821624166    4.83299324990000
C         8.87298439914196    4.38765425518876    0.67680672684445
H         8.44865492303220    4.34494959820284   -0.31517610293828
C        10.11012475221252    3.81785466357352    0.92871312894687
H        10.65203544373342    3.33011384327281    0.13145509632024
B         9.96443120631193    4.30834522337581    8.17353540044959
H        10.82143757393144    4.30461154083684    8.98296713120844

