81
CSD_code = JIDSAT | q = 0 | S = 0 | Stoichiometry = C35H33BN8O2SZn | MND = 5
Zn        7.61973854858101    9.08619716011752    9.47032535863596
S        10.39641498853840    9.20781972329724    8.71586329080144
N         6.96643917427105    9.50136262717940   11.37677420747995
N         5.05130632775792    7.84401978572894   10.05252707267322
N         6.18892803009131   10.29158265379566    8.64303812721631
N         4.94075498692807   10.11574123502344    9.09549208420851
N         5.66087729774772    9.79529631881742   11.46190714277714
N         6.26111486426740    7.51644995090007    9.57218720771817
N         8.19161421744887    8.37112447715984    7.48087341157007
O        10.85557187954420    7.98172313875973    9.32009304431301
O        11.40707835125871   10.11253371372792    8.22720137102854
N         9.31364557234046    9.93140451659620    9.60566130097944
C         7.57407354553382   10.00199209258525   12.45159670322465
C         6.11426630034398   10.91152375874405    7.46481944447500
C         5.41903374823873   10.49069432097221   12.58909682105717
C         4.05696481415750   10.62531899168006    8.21983498971102
C         7.31405760117119   11.22529797774259    6.69235420982346
C         6.62206894668113   10.64895610316809   13.25066296582759
H         6.78493503126861   11.14064423075861   14.18798087218171
C         4.77152774756212   11.14241202463927    7.15273496686192
H         4.38190449059372   11.63443969699642    6.28489848901683
C         9.00173799621153    9.82726556853871   12.68005646732527
C         7.38458990014513    5.52630805396576    8.68489548108773
C         4.25723077908265    6.75818014775944   10.08000343574878
C         6.24446077904337    6.21579117814205    9.27494911281266
C         8.39134672099228   11.86504722388872    7.29771834617836
H         8.29151515381345   12.20284091268546    8.31806655961095
C         7.48156656767094    7.81145192822096    6.50834975942438
H         6.43058301819674    7.66355010733733    6.71284089749764
C         9.47836354575961    8.58551963111762    7.27740741805497
C         8.68561215583843    5.85380295686082    9.05257323291496
H         8.86664989546036    6.60123048397385    9.81084482399280
C         4.98235937316660    5.69274053149662    9.58054076402872
H         4.65693270187545    4.67770869088035    9.47812397153137
C         4.07195487596270   10.98054650053350   12.98347402211393
H         3.66412519690717   11.63523220334800   12.21543598578119
H         4.14376609459327   11.53251082557274   13.91650567451299
H         3.38332737539773   10.14845795565449   13.11873356173196
C         9.55989196793542   12.08596670651545    6.59248500104890
H        10.39982019037345   12.56123761734152    7.07378444247151
C         8.03981977085935    7.43252695107974    5.30165881573077
H         7.42928336702894    6.97031227635009    4.54193408296308
C         7.40685561750549   10.85190923453622    5.35490890178119
H         6.56688678800484   10.36732562372266    4.87739638505201
C         9.75344894281200   10.83129326826621   13.28404638109342
H         9.27164555893178   11.74882548383586   13.59047132772662
C         9.63192021432731    8.65069321814270   12.28360926360948
H         9.04362632197369    7.85965678200847   11.84380294753237
C         2.58392261295680   10.59832731495291    8.41625677372164
H         2.21838425731449    9.57287489298074    8.43023801388855
H         2.09810022613656   11.13276316317833    7.60446919548565
H         2.31289611529930   11.06548871014312    9.36062892346819
C         2.85717993412954    6.76077502144845   10.57930921559844
H         2.81965442520923    7.11731777753547   11.60651359178887
H         2.45686505639016    5.75130592004200   10.54104686662792
H         2.22898503775390    7.41135530625221    9.97364139840993
C         7.18014268392755    4.54334910355662    7.71738739705136
H         6.17286526705266    4.28367501271809    7.42473831110690
C        10.12801807920389    8.25131055899664    6.10332068868876
H        11.18062922258924    8.46476201437920    6.01802762239577
C         9.76135711462568    5.23247135437375    8.44671494323723
H        10.75797521799035    5.52680630828817    8.73505627882837
C         9.65712940178131   11.68025191675512    5.27205372735718
H        10.57351642962700   11.84113485074648    4.72473718571382
C         9.39343503029763    7.65818015725701    5.09145820747220
H         9.86096731468379    7.37482086717855    4.16000035737610
C         8.57568610197779   11.07665301886059    4.65156748020730
H         8.64510343623520   10.77355490361413    3.61647724303993
C        10.99189463718580    8.49202648177415   12.46098004091583
H        11.47201195348890    7.58596511011570   12.12642480653316
C        11.11421603812737   10.66728652822743   13.46442607698570
H        11.69394531248025   11.45475347535981   13.92507780551541
C        11.73664151720151    9.50260642729303   13.04651206141999
H        12.80214673391371    9.38372975607566   13.17824030164880
B         4.69728410469228    9.30617396524367   10.38409355468223
H         3.57569995585760    9.40086846060992   10.73412367493795
C         9.55108633796478    4.26923772366207    7.47423059605526
H        10.39109863408545    3.78588236774457    6.99708790165953
C         8.25794560037394    3.92098281682059    7.11698109863637
H         8.08989356845678    3.16495678263871    6.36316836612504
H         9.49998530689527   10.91598537102517    9.59347014841693

