81
CSD_code = JIDVUQ | q = 0 | S = 0 | Stoichiometry = C36H32BN11Zn | MND = 5
Zn        4.18492966415956    9.16590123237542   11.95094515800909
N         3.85610626658033    7.69153669138973   10.58134950597581
N         5.85761914971404    8.82080169393418   12.83831007452341
N         2.20420029040716    9.04879301744803   12.30843787485531
N         4.04083889129290   10.55518848448594   10.52791197873148
N         2.99334185277829    8.05927257509942    9.61807602638872
N         2.90146335742159   10.53032860231239    9.82635819079713
N         1.41982316979200    9.12354429442304   11.22760351665358
N         4.17344254755892   10.83811639495320   13.45784227532469
N         6.90952743785468    8.02393027259026   12.73698771196189
N         7.34606210343862    9.36556049560816   14.35321712565707
N         7.77379454563763    8.35041763333517   13.63056309552693
C         5.79761991237774   12.11002601392805   11.13438369727060
C         4.51561816357121    6.61604827828586   10.15575363884539
C         3.72493347022347   12.56692795083441    9.63975188541407
H         3.86980773196536   13.59020816854439    9.35867244577777
C         2.68305846025163   11.73342237546878    9.26790750564806
C         4.56143481931667   11.77781487545084   10.43493881487023
C         6.15214780205430    9.66284705300392   13.85499482952175
C         1.42808676556321    9.04463462348021   13.39075215979348
C         6.86041511271212   11.20951854475999   11.13725960117600
H         6.78730123260599   10.29841372115282   10.56050123041408
C         5.26656725142776   10.73413694983585   14.21693332077746
C         2.00440928201178    9.02147777333171   14.72904423206434
C         4.07602316783477    6.29213296228316    8.86698095434435
H         4.40533348259774    5.47708618150841    8.25549822427067
C         0.08991205006860    9.11612217448021   12.98675687178596
H        -0.78063065734246    9.11242742918131   13.61053627772368
C         0.12823316348917    9.15648810169432   11.60375199450890
C         3.10551331891905    7.22890042282373    8.56454654171909
C         5.47378411291768    5.91095899897584   10.99991545543025
C         3.16846024735010    8.29915025944011   14.98212116929899
H         3.59833746133549    7.69152836687553   14.19839235542896
C         3.52063791516462   12.75111778784525   14.71157329546400
H         2.80263130861449   13.53990219295664   14.87160652997413
C         5.15670040793259    5.64751708023733   12.32916631319192
H         4.19330196969990    5.95559563470042   12.71124853394058
C         4.65382448600465   12.64015576113796   15.50784236571169
H         4.83351839759671   13.34538611993200   16.30589666802568
C         5.54581404953618   11.61834068389126   15.25801952588250
H         6.44784562673302   11.47948151371860   15.83080160546259
C         8.00332378798232   11.48380879169320   11.86544124783578
H         8.81781803214044   10.77520477320848   11.87361922393593
C         5.90796606466763   13.29890898405317   11.84983889089068
H         5.08437558134924   13.99906872476883   11.84916254420820
C         7.27558940899643    4.57267021485764   12.63447336379391
H         7.98226545605997    4.06381395803355   13.27296436157968
C         8.09421095653220   12.65480512272265   12.59941727262329
H         8.97958836808173   12.85817972208492   13.18251225923181
C         3.32850772692103   11.82574157955552   13.70229258138343
H         2.46036851856145   11.87652408848435   13.05842776496865
C         6.05382112651606    4.98150885360770   13.14091860661712
H         5.80309979987315    4.78389564965966   14.17331907827959
C         6.69353116225662    5.47886161552769   10.49174940445905
H         6.94307988125032    5.68361427695778    9.46071764556206
C         2.30130609328517    7.35660974193114    7.32096567020121
H         1.23916095260078    7.25247446849043    7.53578895014990
H         2.59504354406179    6.58245722441236    6.61750029932053
H         2.45955451088692    8.33057962633727    6.86122679766769
C         1.50205663232489   12.04852522189229    8.42249286261354
H         1.42901420542933   11.35291673476750    7.58896325785737
H         1.58988943226097   13.05938445770262    8.03380537402367
H         0.58423005231264   11.97460784540917    9.00418431632515
C         7.04924602012308   13.56402160383874   12.58330074029925
H         7.12111296360757   14.48090930111741   13.15068023412970
C         3.76460110419663    8.34713851717750   16.22778853389876
H         4.67422307450392    7.79398187103477   16.40872926815656
C         7.59091158977178    4.81883767651512   11.30943850765619
H         8.54422417342750    4.49991547806146   10.91389832642633
C         1.43302856584515    9.76756043364903   15.75690470100335
H         0.53118023961766   10.33163065447327   15.56781848683010
C        -1.01208060233554    9.21944302819148   10.65273022520659
H        -0.96538301091621   10.12458242468746   10.04986053366479
H        -1.94785877703085    9.21226109893829   11.20502790673098
H        -0.99346121276645    8.36552071007697    9.97823508707968
C         3.20126876353570    9.10846689562343   17.23887735359783
H         3.67165706749095    9.15190960487137   18.20982469467502
C         2.03040703213284    9.80984949340071   17.00273110480101
H         1.58534943781272   10.39889699311979   17.79157813105779
B         2.04894477495814    9.24594101612681    9.82396422892211
H         1.21613771250341    9.28791213522306    8.99027958418640

