119
CSD_code = JIDYOK | q = 0 | S = 0 | Stoichiometry = C46H68CrN2O2 | MND = 4
Cr        8.36257565182921    0.01767625779901   21.48683607282779
O         9.41081057242680    1.01721950455816   20.67384619808967
C        10.08531966430308    1.88382264783405   19.93238084363140
C        10.32025743046497    3.19892696109402   20.41950808577167
C        10.89731633259531    4.12181287576672   19.56487519552380
C        11.27372379085157    3.81916595451623   18.26470626482698
C        11.09981882117637    2.51473252937462   17.83817184225129
C        10.52681655820747    1.52901207634162   18.62922798936678
C        10.37310255640583    0.11518895080271   18.05345746623228
C        11.04050660657232   -0.91256852746121   18.97626353614937
C        11.03150271762240   -0.03674693850972   16.67361211982918
C         8.89031934370831   -0.24297942772370   17.88658030581892
C        11.83138882892745    4.91697282191292   17.37116103919281
C        12.21812097367735    4.41002939791814   15.97887876926906
C        10.75685848316437    6.00089575124524   17.20072849136023
C        13.08266150190687    5.52409474548509   18.02003670570753
C         9.92090140987231    3.63402820266008   21.83404225352528
C         8.39276030347186    3.62205039080920   21.97533863019737
C        10.53935790359162    2.70139189568483   22.88395731607597
C        10.39859822537187    5.05484494040074   22.17020961974687
C        11.29873981328122   -0.54607447089231   22.24848980832788
C        12.37525542918779   -1.07483773452884   22.92081286144376
C        12.19623262533358   -2.14823413850177   23.78714055726735
C        10.89562606881387   -2.62419312862181   23.92173307769825
C         9.87200861626322   -2.04033551785994   23.21374971569164
N        10.02152276060688   -0.99020787646801   22.36805605725897
H        11.41177992785257    2.25937394665856   16.84468340601608
H        11.05251151163239    5.12700846958001   19.91124745188841
H        11.05134897649380   -1.88965865699041   18.49757019114724
H        12.06869913259194   -0.62510336627421   19.18899688974061
H        10.49140248601691   -1.00418116144035   19.90793960593998
H        10.92787093156554   -1.07074331819252   16.35002846200506
H        10.54947080678342    0.58854717677405   15.92579221594978
H        12.09370959112595    0.19414197901737   16.71117548631645
H         8.80021404710963   -1.22266391515514   17.42219086018033
H         8.39189308034048   -0.27987662732944   18.85363945801661
H         8.38946054181801    0.48592297947330   17.25238523439670
H        12.60695245398404    5.23685397769552   15.38756000748073
H        12.99193406274281    3.64837200594587   16.04038285868321
H        11.35568474865938    4.00241573543569   15.45665667809724
H        11.12196497375255    6.79629374666536   16.55417694956080
H         9.86239977841701    5.57356530190324   16.75194396665119
H        10.48125067891161    6.43758532358894   18.15663780423263
H        13.50405790443876    6.29285563425334   17.37543169198520
H        12.85278950302896    5.97670345991334   18.98038319117547
H        13.83491018566833    4.75395657933940   18.17696863382685
H         8.10822960086631    4.01227705891725   22.95028508451245
H         7.93393582761003    4.24166351392372   21.20689110340454
H         8.00642669424897    2.60790632413950   21.88824299995578
H        10.34221114607131    3.08604714006338   23.88255948350926
H        10.11073977316725    1.70475868970067   22.81990557918021
H        11.61777620332110    2.63799405210951   22.74897518118748
H        10.13801751993646    5.27766366720517   23.20316644804093
H        11.47835134619195    5.14384247285500   22.07280158202601
H         9.91442722506686    5.80034006431580   21.54377376239421
H        11.45967926402035    0.28178231362957   21.57399514311095
H        13.35494576425641   -0.65061783055544   22.76195206161893
H        13.02131427123921   -2.59270991533753   24.31947888115499
H        10.67467382459079   -3.45609135459131   24.57324382864648
H         8.87252355269673   -2.42918962208276   23.33452099828568
O         7.31486694472847   -0.98211068491103   22.30055547388078
N         6.71577707854188    0.89643894970085   20.45808869527045
C         6.64638641104543   -1.87096425204142   23.02091128882935
C         5.42339745731763    0.63617890035752   20.78191018749819
C         6.87346768217550    1.87530830732158   19.53208466205901
C         6.34144757852498   -3.15245175523591   22.48212674289600
C         6.28100091726610   -1.56824149292878   24.35898721835057
C         4.33854575754694    1.29727991652028   20.25594017368712
H         5.25684501561455   -0.14750689969678   21.50602689118955
C         5.84244608640518    2.58253459413751   18.96052266353919
H         7.88550002523023    2.10948157234221   19.23927144584400
C         5.77440500217076   -4.09346448062185   23.32420239315942
C         6.63667846295133   -3.53804123373858   21.02717164829653
C         5.71249413547384   -2.56853293128067   25.13415994302401
C         6.52910443402174   -0.19043355818386   24.98406580036618
C         4.52583712427636    2.30342738510183   19.31392465103620
H         3.34645454026506    1.02096484863103   20.57907237547142
H         6.07087161896160    3.34751423756641   18.23387985972003
C         5.47347730294045   -3.84403634606861   24.65501637979570
H         5.56433183664904   -5.07465087693735   22.94050451964977
C         8.14905470191115   -3.55515683762835   20.76859055368790
C         5.97026487421938   -2.54605496159444   20.06546815458346
C         6.10060210089428   -4.93182670558655   20.66602022009605
H         5.45853376372232   -2.34968325954977   26.15285540213195
C         5.88508877855518    0.91322240797386   24.13416177411113
C         5.93382691682912   -0.06540523689556   26.39472131977809
C         8.03706641940669    0.06925735496792   25.10314964408629
H         3.69588778251470    2.83281139118483   18.87498333630978
C         4.91603135001565   -4.96659533469655   25.51740651676550
H         8.34315006959890   -3.89064677407085   19.75206115100038
H         8.64741606633622   -4.23522485248260   21.45672903915729
H         8.56988281335704   -2.55764406607492   20.88208712151243
H         6.06602533696250   -2.90070637536317   19.04125025861767
H         6.44783709944868   -1.57335207034026   20.12710025510838
H         4.91078173960375   -2.44445282433451   20.29405016599967
H         6.29530232026141   -5.11823620763107   19.61157663328107
H         5.02604711658991   -4.99764518307971   20.82173220446499
H         6.59952181888048   -5.71474368794140   21.23258429445388
H         5.96507427747385    1.86972836257095   24.64671436967769
H         4.82995575599444    0.70070660078165   23.97024437423410
H         6.38523286026050    1.00654320655358   23.17382340429019
H         6.09527746058743    0.94897906837155   26.75467947475365
H         6.41682294241050   -0.74132302598818   27.09631878392668
H         4.86203492049761   -0.25054717085589   26.39151175797959
H         8.21038421094722    1.01233091717273   25.61724456764860
H         8.49637354631796    0.12909846549742   24.11787488843003
H         8.51776767475643   -0.72698087630261   25.66875696839965
C         4.65350225208018   -4.53058911164885   26.96157497666474
C         5.93291211314112   -6.11713768927347   25.54755889673890
C         3.59156035803124   -5.46076387872841   24.91989417075789
H         4.26897886319789   -5.37487555933539   27.53065382423111
H         3.91407463353915   -3.73426606502755   27.00275461050703
H         5.56970431778319   -4.19313763039784   27.44062128306355
H         5.56803095853035   -6.92646898099123   26.17676244589568
H         6.88173901880755   -5.76762575880781   25.94949739353543
H         6.11160478287108   -6.51442793390404   24.55238152964921
H         3.17475667659859   -6.25513782442142   25.53579893242570
H         3.73030240949007   -5.84821887563789   23.91451963582835
H         2.87309315960641   -4.64502120536868   24.87467864927089

