36
CSD_code = JIDYAW | q = 0 | S = 0 | Stoichiometry = C10H14CoN5O5S | MND = 6
Co        1.08283799127375    6.85767631352677    3.60725969930811
N         2.15206585875698    5.31854420316693    2.60648349433774
C         1.57106263346303    5.09135883174318    1.27634651690575
C         0.05557249883884    5.18886446567534    1.41582796040767
N        -0.26596427648971    6.30198560522894    2.29589349746829
C        -1.41282020163405    6.92278017514286    2.06191222659897
O        -2.15462032156512    6.76674922754423    1.10074547888905
C        -1.84397491997182    7.88715961222903    3.17864823613677
S        -0.50468695442936    8.48079888949834    4.23292614332048
C         0.08876054100582    9.88789154433134    3.23997842860241
C         0.93792673823727    9.48862875524908    2.07807877891287
N         1.74295089212791    8.43485187914579    2.22893842505415
C         0.94797001129125   10.26174909333897    0.92155244586131
C         1.85293209763170    9.96781025078067   -0.08168534676168
C         2.75713902601209    8.93814716652826    0.12756925597032
C         2.65956236787256    8.20277495881699    1.29441488551126
N         0.49029338494315    5.73851251707329    4.82720903658408
O        -0.57070715837962    5.99660053878692    5.33820642171248
O         1.18379988168490    4.77508127777763    5.06374121437053
N         2.40842601924869    7.44283913781696    4.61865659444800
O         2.19777886965758    8.34077320245331    5.40842632087828
O         3.50144444086685    6.96856084266395    4.36596813022894
H         3.16205611137137    5.45133234647277    2.55982723765477
H         2.00833113132839    4.48466258214212    3.18152235913292
H         1.92242852782476    5.87014015898123    0.59637004626973
H         1.86131067117275    4.11594880208457    0.86889432168456
H        -0.42577680310390    5.33077490437919    0.44269886575918
H        -0.33781160662977    4.26412528326250    1.85968258753153
H        -2.38592876185385    8.73755386619384    2.76732453013511
H        -2.51005101317724    7.33305997728944    3.84280083160950
H        -0.76450944594632   10.49008676670079    2.93085976863823
H         0.70226134883093   10.46696469398301    3.93634011523096
H         0.25945694116728   11.08594679635634    0.82205674899825
H         1.86995027179755   10.54477983832798   -0.99341344495101
H         3.51735727995247    8.70408888885530   -0.59990871167264
H         3.36647592682336    7.41459660645213    1.50824689923284

