33
CSD_code = JIDYEA | q = 1 | S = 0 | Stoichiometry = C6H16CoN4O4S2(1+) | MND = 6
Co        0.26083213490092    3.32083096729954    3.25595373595022
N        -0.08643685490428    1.27989620538305    3.41817953788843
C         0.52212858538377    0.45284800307054    2.36585139463083
C         1.99585319933169    0.79226032746529    2.20335617150135
S         2.30184923101714    2.57651653871805    1.98354849468981
C         1.95074627879658    2.87200321527830    0.21289526381420
N        -1.28629870651915    3.73009500781456    4.03025536634104
O        -1.32209127124820    4.70004501321651    4.72495544763234
O        -2.17382329478196    2.99148720192949    3.70055921219322
N         0.60350818918514    5.33318527502710    2.88948624557352
C        -0.33675895116681    6.00558760380202    1.97723359943395
C        -0.38609706214262    5.29003662499754    0.63876181135857
S        -0.73516637628213    3.50407231826123    0.88778278429331
C         0.50211098439395    2.75696557740783   -0.23257663003573
N         1.22366955255907    3.36629773604556    4.77093104157393
O         1.29990334058804    4.42290426569800    5.32017285092757
O         1.76407064395388    2.32908180391627    5.04516324526876
H         0.28530033796453    0.95396202114152    4.31594551051141
H        -1.09251693116613    1.09062464465917    3.43308064330628
H         0.44054906565916   -0.61232976604645    2.61386637642172
H        -0.02541328788068    0.62144713918490    1.43729451252360
H         2.54740517347280    0.54528709292304    3.11167868309988
H         2.43996779516489    0.26682215315377    1.36018213711378
H         2.56669427810278    2.17435977916584   -0.35511932517156
H         2.33860050047899    3.87694410253132    0.04093910498323
H         0.56444440260142    5.81685322847252    3.79307054857320
H         1.55573094257367    5.47456325207701    2.54221441249934
H        -1.32831965837394    6.00789002178921    2.43613865016532
H        -0.04244922006230    7.04841513204352    1.81256396773844
H        -1.18001515913477    5.69621707748033    0.01400531330457
H         0.56431878421713    5.36851271272108    0.11475055445325
H         0.37618584257744    3.23328987036555   -1.20563849895873
H         0.19861751073984    1.71592785300629   -0.33118216359960

