41
CSD_code = JIFKAN | q = 0 | S = 0 | Stoichiometry = C14H18N2O6Zn | MND = 6
Zn        7.44230314608328    3.01933548659101    6.12351849061801
O         6.12397629029182    1.43421180074914    5.43093653272620
H         6.05728743280443    0.94206370182494    6.27593636906291
H         6.78424467617143    0.94195246393813    4.89843145638343
N         6.28728705667659    4.61119354960048    5.47968482069759
C         5.18553519409001    4.51192196427209    4.76315180450882
H         4.81087347347375    3.50918559579894    4.61909748956558
O         8.36851562563252    3.01495804421263    4.34464025772109
C         4.54345699393579    5.61789550680105    4.22446640269875
H         3.64173131666587    5.50017293925492    3.64524870048925
O         8.44727595363775    0.80680859561124    4.20525513615698
C         5.09715590860704    6.86793585878258    4.44545164929212
H         4.63791720673053    7.75572574798463    4.03623106866680
C         6.25445956906708    6.96660270655646    5.19967669721343
H         6.70369963959346    7.93197719672732    5.36687001641648
C         6.82903795201752    5.80514026340647    5.71525274549924
C         8.68277606843947    1.94365545967510    3.75925432189458
C         9.39689943735391    2.08490698274955    2.42272551175562
H         9.54791529006761    1.10653960174874    1.97680633813109
H        10.35683659850622    2.56919112058402    2.58513302245473
H         8.80487232399183    2.71283525625415    1.76195027251777
N         8.59750027473672    4.61110495905365    6.76728842648369
C         9.69925186952539    4.51174499428582    7.48381418479335
H        10.07377359324100    3.50897904949667    7.62796095224614
C        10.34135967456254    5.61765497158355    8.02260501027685
H        11.24306146347234    5.49984827718801    8.60184376024439
C         9.78772596531370    6.86773451964079    7.80168887345773
H        10.24703204530095    7.75548282319045    8.21092618364363
C         8.63042615838764    6.96649826786255    7.04747092200122
H         8.18126599324520    7.93191140351709    6.88029625107520
C         8.05578971309533    5.80509082410092    6.53182613801737
O         8.76114183031607    1.43463919134833    6.81588796139593
H         8.82739107577750    0.94180220316311    5.97119993483691
H         8.10114733887730    0.94273919132705    7.34919925166872
O         6.51606387302480    3.01509083985892    7.90250954766535
O         6.43787982910598    0.80679757492713    8.04198049129648
C         6.20295136567809    1.94365018419937    8.48835034437350
C         5.48802166166303    2.08483108463834    9.82450031850751
H         5.33674559984986    1.10643597622901   10.27031560170960
H         4.52821066447565    2.56940226115137    9.66198863526674
H         6.08010285651252    2.71255156011551   10.48542810657092

