61
CSD_code = JIFNAQ | q = 0 | S = 0 | Stoichiometry = C22H35Cl2NTi | MND = 12
Ti       -0.46073839541323    5.36324144076868    7.29123384877955
Cl        0.18875769023729    3.25749819760269    7.71104695203999
Cl        0.38025066710672    5.19251740261423    5.21566905834376
C         5.30452946106942    4.04217005956489    6.15892116879633
H         5.71611418232866    3.77738826345772    7.12926370562429
H         6.06442677639970    3.85893609466605    5.40259958121980
H         4.45920675322179    3.39089658900353    5.95268560501499
C         2.94654878167937    5.05852981839021    7.57063447519253
H         3.21016074460497    4.35233395571438    8.37788009664899
H         2.68351307355967    4.46835217771341    6.68743110554386
C        -2.51574521040795    4.17416371531147    7.42662559327221
N         4.03157771242415    5.94819518872273    7.21317728864872
C        -2.79674630526043    2.74081318528475    7.75244059686343
H        -2.33313914587480    2.07643301035320    7.02632340675373
H        -3.87709991893371    2.57401614001120    7.73189773685048
H        -2.42597380299203    2.48170589466892    8.74233115019277
C        -2.57396742823701    5.25208840354505    8.34988212236968
C        -2.54551964117076    6.46868439295502    7.61150386227022
C         1.25688561624463    6.99220194160947    7.28976604370831
H         1.71380457055516    7.42055209743429    6.40860421556511
C        -2.36878894763766    4.71507298308662    6.12568106532656
C        -2.97436558594670    7.80771846745733    8.13624091596720
H        -2.54075598715663    8.04039221938498    9.10702269126018
H        -4.06114744680800    7.80229580920973    8.25287676237756
H        -2.72337410751079    8.60720262823861    7.44269160944611
C         4.88911423772854    5.52051037530135    6.12108628202962
H         5.79966242639198    6.12387463228559    6.18143131500843
C         0.95981332513093    5.70456022567542    9.14932313749131
H         1.13667162287688    4.97957321040043    9.93449805676524
C        -2.41847811879245    3.91170119684542    4.86237723513856
H        -2.15850724457953    4.51964058734053    3.99920034620481
H        -3.42624272252861    3.51474584442252    4.72024533120061
H        -1.72346049035879    3.07164591648952    4.91346295412605
C         4.62926949416129    6.64126933871746    8.34015781443627
H         3.81355517918405    6.77728566392252    9.06125100078565
C        -2.35878621588218    6.14024508393075    6.24127872826445
C        -2.35278947008640    7.10353590342313    5.09144790406811
H        -2.03141987227400    8.09497689265766    5.40901241377429
H        -3.35474284619215    7.18812530711804    4.66456542892577
H        -1.67441495068966    6.76173498577916    4.30966752344201
C         4.20259899179312    5.84454703761474    4.78987454274186
H         4.83114936786831    5.54246736775867    3.95580015614573
H         4.01861309492365    6.91353275937831    4.72004708269907
H         3.24850314436091    5.33008840409606    4.70918946120738
C        -0.02009925580613    6.71295311369637    9.15946199389289
H        -0.67546341254473    6.93267326443594    9.99036946278461
C         5.76169171177020    5.88002470830922    9.04491610693147
H         5.42184389605773    4.89482737192632    9.35718557509284
H         6.07944138181062    6.42735598322407    9.92928920276229
H         6.62007241409202    5.76289151714236    8.38784806902981
C         5.09992493794192    8.03625847668986    7.92048329258234
H         5.96892668838248    7.98385608830491    7.26981108339598
H         5.36749582783449    8.61852261751255    8.79873491490666
H         4.30078681347769    8.54719627618362    7.39073861642286
C         1.74688636267770    5.86356519445772    7.98518759487081
C        -2.87920136638722    5.08266451379831    9.80923498165073
H        -2.11886516382528    4.46967180398680   10.29845435319824
H        -3.83987984303290    4.57771240181178    9.92835005133820
H        -2.93932636987697    6.04221113629129   10.31779872392119
C         0.15949676782697    7.50921807387405    8.00055529767543
H        -0.33065444950112    8.44943664816520    7.78983330697873

