54
CSD_code = JIFNEU | q = 0 | S = 0 | Stoichiometry = C25H25Cl2NTi | MND = 12
C         4.73450261965947    4.83133780901926    3.00882360705686
C         4.06752634966033    5.96460206715080    3.54054358532821
H         4.45315829326772    6.97715481398353    3.55014970230177
C         2.77653445897419    5.56647364594930    3.93375855858138
H         1.98835493262435    6.22772783577558    4.26850366910743
C         2.63880766962666    4.18545133601060    3.65951038770662
H         1.72694060797368    3.60746855886973    3.73912979298534
C         3.83709859579424    3.73891043366436    3.07235174541868
H         4.02921678545323    2.75894505174114    2.65715324798397
C         4.40349385422819    3.72977551595710    7.53857388137598
H         5.18271801802447    3.13079179238783    7.99234092767107
C         4.32666881835605    5.13249224218693    7.55387552899759
H         5.03252645817469    5.80178083090767    8.02762543861801
C         3.12494447314932    5.51375401667578    6.92256134650105
H         2.73625896154205    6.52296211100387    6.87674894523114
C         2.42837275580590    4.33547038453998    6.56969744627794
H         1.40769537704744    4.28750086247327    6.21585843379810
C         3.23054376484554    3.23306037720973    6.91894147333760
H         2.94934479724378    2.18949807771526    6.84779893898887
C         6.09183970140109    4.76170178291147    2.37013419419763
H         6.56965753904723    5.75681381801975    2.37040069406144
H         6.72335676231861    4.08087957496981    2.95340445032279
C         7.09120005500239    3.40374673414090    0.62223335544045
H         8.04054693243813    3.96413367229451    0.68686907045127
H         6.93048077711927    3.12056155952670   -0.42228458325405
C         7.14455254450878    2.16895336617509    1.47995507348370
C         6.08112778911934    1.27473439777298    1.44148240143524
H         5.27114367267992    1.45832759258068    0.74992183010582
C         6.05891948139042    0.17494084251214    2.27816231995087
H         5.22317671264117   -0.50961477059356    2.24869231216840
C         7.10339800295731   -0.04711777713091    3.16047355566867
H         7.08067423840104   -0.89909809600783    3.82349290947686
C         8.17160834148608    0.83034301677754    3.19553852345012
H         8.98735338636147    0.66344553845604    3.88348279938201
C         8.18988616906301    1.93537959390847    2.36133557218129
H         9.02217154882719    2.62487548191435    2.40142123419345
C         5.55949009355503    5.20213274764077    0.05069752766615
H         6.40912827655896    5.83634319102740   -0.26049547806521
H         4.80832702888717    5.84457928359611    0.52176360081465
C         4.94294572705070    4.52825041961755   -1.14421469915730
C         5.44856473949422    4.69907833624498   -2.42436560312837
H         6.30101386570472    5.34541674009020   -2.58229191261393
C         4.86834798130027    4.04828622367686   -3.50069199603168
H         5.26979190317526    4.18979327056616   -4.49370287906331
C         3.78146787041589    3.21527186694867   -3.30396988284245
H         3.33113093712986    2.70488998619605   -4.14269646696705
C         3.27212608908537    3.03792533008831   -2.02720609885104
H         2.42221523469599    2.38902922503679   -1.87132401979645
C         3.84842871245775    3.69230674754948   -0.95496426318738
H         3.46129862426756    3.56333704983286    0.04521578945430
N         5.95120698209115    4.20780564164262    1.03317498575134
Cl        5.53222217821296    2.50255207259473    5.06900189014464
Cl        6.28719402504107    5.55752099985182    5.48519873159050
Ti        4.39179848468856    4.40191677636452    5.26030840428693

