44
CSD_code = JIFPUM | q = 0 | S = 0 | Stoichiometry = C15H24Cl3NTi | MND = 8
C         6.04460852743392    3.92762823962094    8.77654283026546
C         6.38058133947580    2.83859372409278    7.92873062290389
H         7.17118986598548    2.83875539070375    7.18656144895130
C         5.62873572588868    1.71144951383153    8.33353380128221
H         5.73246292880102    0.70684874926757    7.94258051335044
C         4.79953249556249    2.10120033370559    9.40860887668166
H         4.17278374324264    1.44257730614131    9.99910053363428
C         5.06326265175268    3.46736349901866    9.68787130043413
H         4.68132807122065    4.02546112231896   10.53208164753495
C         6.72387966071746    5.28051656739369    8.77791236818741
H         7.80382709783050    5.10619149167979    8.69345422603871
H         6.43715941895014    5.81999009447937    7.86838573155940
C         7.45452662210640    6.04934792024577   10.98792678633232
C         6.90558087236527    6.64588862833863   12.29418235367195
H         6.16862939267011    5.95391155996244   12.70658074111084
H         7.72451573583662    6.73235330512176   13.01001439596814
C         6.23654871833406    7.99415670558210   12.08923491861470
H         5.82924093180768    8.35357124546122   13.03655971705438
H         6.95635846060766    8.73643259753506   11.74389733012285
C         5.11496296827524    7.81963915925189   11.07979649684804
H         4.61970678855769    8.77402274245649   10.89554525795735
H         4.37730327618187    7.13375305944723   11.50125559697607
C         5.59398014703987    7.24805364615398    9.73396966837649
C         7.83713438900251    4.59210550336652   11.30504739261436
H         6.94793375713350    3.99357849818562   11.47712931726903
H         8.44647912202065    4.56981483415761   12.20547388659642
H         8.40918910624257    4.13214137946393   10.50496846850832
C         8.74159393550438    6.79683511149903   10.58196163582520
H         9.05449710514497    6.52879464384847    9.57611978628118
H         9.54496276529375    6.53350258639970   11.26568490401720
H         8.61136431807559    7.87284200300115   10.61762817451961
C         4.31896630094282    6.84936907588895    8.96698807677739
H         4.51157362670003    6.62286906634628    7.91951650036616
H         3.61374702402515    7.67677813657085    8.99747286476820
H         3.84591470227885    5.98581890241358    9.43342094547218
C         6.30882772320754    8.34658861924547    8.92313362220374
H         7.07275105074449    8.84806637486668    9.50754803242772
H         5.58464794337207    9.09230037852471    8.60498015284925
H         6.77781913099853    7.93316886018827    8.03384903577618
Cl        3.37001295093748    1.82640839673899    6.29383034394882
Cl        2.27026674408289    4.07377187359675    8.30178557286993
Cl        4.60316037847755    4.76938022037072    6.03437551585878
N         6.40541212533494    6.04967575013857    9.96490394992126
Ti        4.16504035983636    3.35468318337903    7.59785465727211

