60
CSD_code = JIFVUS | q = 0 | S = 0 | Stoichiometry = C26H30FeO2Si | MND = 8
Fe       -1.04071932460294    3.41990328631444   12.03301832491178
C        -0.89959714904189    3.76967443663820   13.73104060103038
O        -0.87834839914470    4.12471118072463   14.82493002799781
C        -0.52276077680539    5.07888281935585   11.89208446143587
O        -0.24654628640958    6.19532848116712   11.92789610625530
C        -2.98323764479346    2.47361703861016   12.19291640972750
C        -3.03568109563468    3.45961405611035   11.16993173619048
C        -2.11994469201308    3.07167624564393   10.13861329459244
C        -1.51917489559636    1.83978855458801   10.51483145096464
C        -2.01451055315649    1.49194589762267   11.81125380865418
C        -3.89887068866206    2.38489301080944   13.37396658397692
H        -4.22070758055323    3.37286364042801   13.69340697224239
H        -3.41063573202953    1.89782041622445   14.21456385180678
H        -4.78556176650597    1.80462726669023   13.11164962242938
C        -4.01642678774399    4.58612849818628   11.07680090193488
H        -4.92672356869574    4.24913383019122   10.57707394742842
H        -3.60310648000434    5.41422987112380   10.50643792359896
H        -4.28557038407892    4.95246428829078   12.06432659590447
C        -2.03794851985608    3.69756737472246    8.78110650368592
H        -1.10685748076142    3.43486090150154    8.28594624882733
H        -2.10547550327251    4.78171138422839    8.84065368737976
H        -2.86536550849752    3.34263150271018    8.16342745641745
C        -0.69420454670503    0.97351693631118    9.61954847320712
H        -1.34283238622332    0.47333354797715    8.89786372677844
H        -0.16717084953549    0.21274143253342   10.18709030102556
H         0.04012760013886    1.55817202749931    9.07003107262040
C        -1.78815271574700    0.18350174463673   12.50288586339660
H        -2.44703824395023   -0.58074790661148   12.08674049386996
H        -1.99341755516807    0.26578279718319   13.56721500351823
H        -0.76046454185966   -0.14945311197662   12.38012719164611
Si        1.07600785208446    2.71666750162065   11.94337301867983
H         1.16522260146776    1.22492735772724   12.03070205384993
C         1.93201861999729    3.14633104310299   10.29521659445875
C         1.36634903383310    4.10499768316524    9.46337720759050
H         0.45810527858835    4.59425251995003    9.78632163976827
C         1.93554317420995    4.45262679187988    8.25198465403820
H         1.47338581183470    5.20455620045453    7.62818286039373
C         3.10386303742030    3.83120195664991    7.84871578129883
H         3.56131523522969    4.08775904544193    6.90398826929406
C         3.68975068971431    2.88402724180317    8.66953151842333
H         4.60938070739650    2.40774289922871    8.35778683038744
C         3.12256342910835    2.53687797153332    9.88891207179445
C         3.79732435348802    1.51789067687162   10.75344521184245
H         3.19910401159386    0.60969560479770   10.80699435649950
H         3.91430617432376    1.89882944810262   11.76568885797727
H         4.77673128825988    1.26205854947128   10.35604321764163
C         2.21441885405851    3.34545781238852   13.32515860057258
C         3.03198545184292    4.44326755467945   13.08012884285121
H         3.03189714200453    4.88361400922745   12.09268002569601
C         3.84520610505050    4.97467592422205   14.06341776426937
H         4.47266931488246    5.82784974078749   13.84872526790981
C         3.84704625954983    4.40662619167433   15.32524705830523
H         4.47440430039159    4.81328325639583   16.10545599609225
C         3.03809751634667    3.31463186958007   15.58576996635446
H         3.04025760833179    2.87442941526905   16.57383032184370
C         2.22027226592016    2.77800453130463   14.60089893050530
C         1.37036628241463    1.58414432731173   14.91177382393897
H         0.36619111178424    1.71443195169956   14.51336922748817
H         1.31061864009489    1.42385460835487   15.98584925078793
H         1.79722190568731    0.69226486584096   14.45425213596872

