57
CSD_code = JIFZAC | q = 0 | S = 0 | Stoichiometry = C23H27N4O2Rh | MND = 4
Rh        8.76376675316427    5.40751731490193    7.96275402318538
O         8.25496667693239    5.02461592829135   10.88884258488075
O         5.80867064919506    5.68536986580495    7.56458212612522
N        10.76365567259888    5.11960069933835    8.05232241465862
N         9.25521613350243    5.50262585819199    6.00485223626257
N        12.02205335549304    3.13955856310783    8.12261935801275
N         9.20308157418114    3.83370935263805    4.35550980330074
C        11.03994418130383    3.90180582575706    7.55295788090991
C        10.31527520512132    3.41015892074238    6.44781777822502
H        10.40848881324928    2.37089125396668    6.18710362303514
C         9.58354418415402    4.26274398453996    5.59719959297431
C        11.70656637934377    6.00796064272795    8.51756019191489
C        13.07435430784505    5.92335136210447    8.22845207099429
H        13.44570170498288    5.11524593341217    7.61502268828668
C        13.95055956523578    6.88926284893137    8.68179600921144
H        15.00167909468773    6.79925677433102    8.44214605539059
C        13.51311606547799    7.97388502824461    9.42953769066387
C        12.14882598747398    8.08457452711803    9.68042730774556
H        11.77887187488209    8.93707360283201   10.23285655846005
C        11.26382338144525    7.13167274676631    9.22911458655867
H        10.19327103687845    7.24566865375790    9.39989526770119
C        14.46893917289083    9.02425658724327    9.91070628084589
H        15.48163869135397    8.63148801118232    9.96866091245148
H        14.17706199845847    9.39111213751021   10.89286157842319
H        14.47353080511400    9.87262263029614    9.22471458648330
C         9.27228560279607    6.62077868370231    5.20342444321580
C         8.68905183259462    7.79670992603428    5.69647435894577
H         8.23202807034846    7.76966886479722    6.68597288767026
C         8.71461084624861    8.96443574438351    4.96897194009428
H         8.25174199173249    9.85480977902910    5.37126439956019
C         9.33684272025902    9.02269931596740    3.72485076657163
C         9.95898549156013    7.87491058717953    3.25521976510459
H        10.48080955619678    7.90273426408363    2.30789795840392
C         9.93605612753736    6.69503147445819    3.97269373544273
H        10.46669313790998    5.83332252484829    3.59438955070873
C         9.36167088945543   10.30349071658190    2.94549911040446
H         9.99788409049041   11.03703306620907    3.44173283018263
H         8.36120362965691   10.72773645727683    2.87193651484404
H         9.74645302601367   10.14059820938968    1.94152418681536
C        12.35189172319072    3.27535259815218    9.52092533229363
H        13.34600899281854    3.71181556654253    9.66086894475183
H        12.32812362146440    2.29038754822664    9.99411801199711
H        11.62386172803364    3.91660825144941   10.01468654540566
C        12.57186576057782    1.97594699221649    7.47562243772436
H        11.98226612700172    1.07250409646638    7.67238957201886
H        13.58363973608691    1.81480329980334    7.85072174425042
H        12.62604014872306    2.13676990605775    6.40003997341818
C         9.75514922669300    2.65339689981928    3.74144663347157
H        10.81001342663805    2.55874775115025    3.99450962070066
H         9.66893707378374    2.75221369679194    2.65838407989534
H         9.23102500045322    1.74031983726440    4.04824003250281
C         8.01549888692408    4.35451840032267    3.72216272369128
H         7.45594305714073    4.96740823439206    4.42676995512069
H         7.38244275280051    3.52262996777841    3.40300385738968
H         8.25976643956987    4.96907058488929    2.84985595400454
C         8.47819327035141    5.18779526946195    9.77482776489486
C         6.94591274997390    5.59562243152235    7.69236116180428

