105
CSD_code = JIFZEG | q = 0 | S = 0 | Stoichiometry = C42H54N8Zn | MND = 4
Zn        7.30100853776245    2.06447515692722    5.19999235538484
N         5.66179937188263    1.11140012894647    4.74842342993158
N         6.52901521504054    3.07021473473571    6.66539569658328
N         3.68792381851039    0.02437260021711    5.37669746398313
N         5.30369061845261    3.04193772839673    8.65204673379633
C         4.71365669416033    0.90379817357238    5.66225005270045
C         4.74030699288752    1.48992720017741    6.93204183564944
H         4.08920681188807    1.04392136314729    7.66444679153204
C         5.53928126305829    2.54889058742923    7.38681147914840
C         5.43986477694581    0.94370036895587    3.38811928627913
C         4.24782731849980    1.32299927843658    2.76335019790351
H         3.43371720665546    1.70600397421085    3.36207592198352
C         4.12006692930455    1.24945390879345    1.39123205643288
H         3.19391478000119    1.56187051227326    0.92773152397276
C         5.16063271398529    0.79229697496278    0.59171014497532
C         6.34307165743977    0.41032804142419    1.21366814442843
H         7.16798663895998    0.05066881016561    0.61350013405619
C         6.48432414658020    0.48247856470426    2.58394437980200
H         7.41224718464964    0.18906346149983    3.05608428404237
C         5.01678164210171    0.74580937880036   -0.90088616808966
H         5.17209281943269    1.73870923576015   -1.32599049105930
H         4.01923396457953    0.41488165380497   -1.18406322670127
H         5.74768602637559    0.07074387904817   -1.34045358484797
C         6.96135100937371    4.37870361231969    6.84732502826479
C         8.31130463100670    4.68666190558839    6.67355514610323
H         9.00968608585601    3.88154556450763    6.49290949800529
C         8.74776442473010    5.99301117437688    6.71882137152346
H         9.79717246704461    6.20955569788226    6.57370376690370
C         7.86198043033919    7.04139310570508    6.94002319555465
C         6.52163375594607    6.73494725642848    7.12448176269010
H         5.81019637900458    7.53281202402080    7.29256307777731
C         6.07323898792883    5.42998715204955    7.08466722234339
H         5.01981634612370    5.21842259849548    7.19986159666477
C         8.34561877831551    8.46104190046393    6.94065885079510
H         9.27216766105191    8.55468058363983    7.50479517977371
H         7.60270410398063    9.12659478579600    7.37484944365422
H         8.54192278474165    8.78696985908086    5.91870261339684
C         3.89985761686697   -1.16239979231791    4.58539194985213
H         4.95147913544184   -1.26190439944264    4.32996724558128
H         3.31830636513854   -1.13338246157337    3.65763410672423
H         3.59653570714383   -2.04330012573067    5.16146794845667
C         2.44716109609697    0.03382020970754    6.10557368060981
H         2.46552746927697   -0.62548703818578    6.98372698559775
H         1.65309966755899   -0.31087203230451    5.43930742686254
H         2.21204758592068    1.04653797057741    6.42704370982181
C         4.05639451542976    2.84561772939635    9.34251390708207
H         3.23154519757114    2.83346691490268    8.63251258518436
H         3.90669227786926    3.68288881274928   10.02752409393591
H         4.03783084053124    1.91731127739220    9.92889712591860
C         6.38436957003413    3.49173346386199    9.49536744395902
H         7.34159592212367    3.27417776761881    9.02831192486219
H         6.34038834002465    2.95995904146383   10.45100503655788
H         6.32270857760737    4.56830547351220    9.68743185612668
N         8.94021742794840    1.11147541171900    5.65162990608724
N         8.07289228437937    3.07025121076654    3.73449215692733
N        10.91402210147783    0.02438405976465    5.02321706672211
N         9.29809356367295    3.04174207621193    1.74779260376946
C         9.88831435183928    0.90386688444330    4.73776275739674
C         9.86159894963984    1.48994959466104    3.46794839714381
H        10.51264378698346    1.04386045747078    2.73554889577382
C         9.06259255857938    2.54885314007797    3.01310099869603
C         9.16216547513569    0.94365497837596    7.01191551769886
C        10.35417993139533    1.32294629419499    7.63672621474512
H        11.16840395132368    1.70573174191290    7.03801920330303
C        10.48191289002615    1.24933746939108    9.00884512346757
H        11.40825806958439    1.56121658017363    9.47234127162272
C         9.44141509148616    0.79192590126285    9.80831311737714
C         8.25901512196361    0.40991131729561    9.18630751100968
H         7.43397068225990    0.05054347390078    9.78646738323914
C         8.11772446349635    0.48230208327165    7.81604721066972
H         7.18971525093377    0.18916715993885    7.34389771643222
C         9.58525637334014    0.74525811321053   11.30090692140417
H         9.42972910831946    1.73807179963331   11.72613103992376
H        10.58286324422197    0.41449962972473   11.58406410158521
H         8.85447453918775    0.06999923454450   11.74038292732921
C         7.64046623315331    4.37867481772954    3.55229613963275
C         6.29053953436045    4.68663654578399    3.72633949246675
H         5.59218953406620    3.88151713190647    3.90709241568907
C         5.85407923234913    5.99299039345519    3.68126847304965
H         4.80461192657700    6.20948467738075    3.82593809567874
C         6.73981195340848    7.04138017265278    3.45987943489218
C         8.08012660143169    6.73494239448005    3.27518581882561
H         8.79151018076068    7.53279687291695    3.10680388582331
C         8.52852997980633    5.42997699686445    3.31485821215507
H         9.58196750850802    5.21845934266692    3.19976677786559
C         6.25608478310872    8.46100112846195    3.45895409915100
H         5.32989262794383    8.55472309482993    2.89426567546252
H         6.99921938033268    9.12670094116429    3.02540413952251
H         6.05910497000184    8.78673058694042    4.48080557524750
C        10.70213411514326   -1.16240371438360    5.81450177937120
H         9.65053303413781   -1.26189216964015    6.07001830807948
H        11.28376404754374   -1.13342134740753    6.74221173854365
H        11.00538602667368   -2.04329546018245    5.23837060408018
C        12.15480089607330    0.03390862386913    4.29437593982534
H        12.13649869367888   -0.62538706630984    3.41621027069424
H        12.94886008803386   -0.31074434547214    4.96066537404327
H        12.38985984650076    1.04664836571590    3.97293116808014
C        10.54532729005577    2.84528611199264    1.05724910043421
H        11.37024503262298    2.83324075709161    1.76717427441589
H        10.69497505493001    3.68243650683479    0.37208275597087
H        10.56381547896297    1.91688427526814    0.47101670965240
C         8.21736773516245    3.49154849120781    0.90454144000978
H         7.26016511410706    3.27411467917622    1.37171109977376
H         8.26123589970555    2.95967446184249   -0.05104480136573
H         8.27910312459232    4.56809237291804    0.71234473798668

