105
CSD_code = JIGBAF | q = 0 | S = 0 | Stoichiometry = C36H62ClMoN2P3 | MND = 5
C         6.76736318879730    0.19687444777329   19.83929038585046
C         8.15461220971208    0.01930923642208   20.09363549570313
C         8.55792308456827   -0.41852655759492   21.34053429530440
H         9.60815139559153   -0.55905021608395   21.54275463545486
C         7.64108163071274   -0.68504833220535   22.34371119597316
H         7.98084217162438   -1.01802167448142   23.31323258498280
C         6.29077593958452   -0.54001089156291   22.09058315551363
H         5.57824677420623   -0.77036505445461   22.86899036815320
C         5.83410877697587   -0.10884449709350   20.85718399336943
C         9.14273511500785    0.24730889698148   18.97343266977211
H         8.76586478265303    1.07363198328395   18.34582061973533
C         9.19718218799119   -1.01409801743372   18.10235091018926
H         8.20538556228122   -1.24477528024748   17.71257141654658
H         9.87086497340668   -0.86475188791352   17.26116819283443
H         9.54633378087777   -1.86305337048765   18.68805645611899
C        10.54278794235381    0.62929130156111   19.44879280573036
H        11.14106315822482    0.94646104317298   18.59721230200862
H        10.49690426215517    1.45003277389315   20.16074526356904
H        11.04592088888887   -0.21564194257590   19.91399508673531
C         4.35054294758962   -0.01387462065386   20.58650733507695
H         4.21740881839553    0.37972030392141   19.56960806209885
C         3.70829787535729   -1.40244957125957   20.65732272406399
H         2.65328988648088   -1.34520048068693   20.39584221119285
H         4.20026567197902   -2.08845906733730   19.97092683569216
H         3.78958590896858   -1.81197214549129   21.66154769141148
C         3.65096343770475    0.94584353684247   21.54975559793822
H         2.59726424627367    1.02886202830437   21.28991934655112
H         3.72279126173327    0.59140926649420   22.57528059336179
H         4.09994234000058    1.93409548851833   21.49379411388539
C         7.30364519324899    4.56474071331741   17.83919363903972
C         7.34373123045743    5.56251338392082   16.83176367975707
C         7.76640880915940    6.83626291780924   17.16299857683277
H         7.80416604718747    7.60527388333178   16.40703552113926
C         8.14305381387364    7.14637435333782   18.45839837568615
H         8.45537884341718    8.15152096797346   18.70194797069789
C         8.14245000285095    6.16648937958214   19.43628589651442
H         8.46397736020536    6.42163118065284   20.43413441817686
C         7.74841530248569    4.87227868804714   19.15001244846281
C         6.97665615386396    5.17505139806044   15.42038727167959
H         6.17265787393724    4.42112255892522   15.48327900990398
C         6.48381304137277    6.33688791405895   14.56157306453434
H         5.72784627030101    6.91755075252143   15.08405673733816
H         7.30623702752089    6.99661411483577   14.29419121108164
H         6.05056183118655    5.95376250878040   13.63952002623800
C         8.19145106916251    4.51445338099565   14.75771841831971
H         8.50229243126333    3.63572713940100   15.32162811882850
H         7.95095594216205    4.20862677069642   13.74108323719600
H         9.02514918749467    5.21366572353069   14.72359006797467
C         7.78122336257701    3.76947134506177   20.17982489174280
H         8.03136292912987    2.84171465280168   19.64849682113102
C         6.39218232384692    3.57354081830760   20.79425621370111
H         6.43397510797258    2.79640707857184   21.55458928574735
H         6.04148205726344    4.49757890203023   21.25105429752690
H         5.69128558920851    3.26272679816104   20.01639667565428
C         8.82048103421340    3.98418285562981   21.27773990356879
H         8.91812191850650    3.07167393715302   21.86274219311333
H         9.79042535079180    4.22829537350719   20.85003270472063
H         8.52299541754804    4.78392075137807   21.95241787845399
C         3.76459428804815   -1.13078635813250   16.03033758134735
H         3.59319749078758   -1.51512358725621   15.01583331208496
C         4.86114219922561   -1.95828854674956   16.69897318720441
H         5.76962654531770   -1.94879561375464   16.09414324430693
H         5.09922301960447   -1.54204604598434   17.68015069381021
H         4.54316980510663   -2.99192271604734   16.82753722134419
C         2.46930869729252   -1.18652567245870   16.82511358764689
H         1.66711113360342   -0.66389777171475   16.30795818995663
H         2.16703076977183   -2.22328883987287   16.96697430265291
H         2.60680835559809   -0.73021066614319   17.80471098144405
C         4.00041148678082    1.04061752503186   14.04074081684860
H         4.36953072767762    0.18169463596008   13.45976890799923
C         4.77983659436311    2.28414292070286   13.62516619616481
H         5.84466000970374    2.16221458338108   13.84353143886734
H         4.66890007351008    2.46052068017227   12.55616041404120
H         4.40469273254890    3.16146057114166   14.15581643456912
C         2.50546223167101    1.20175016876206   13.81311269917983
H         1.95900505961703    0.31293937110936   14.12221297331926
H         2.13577397006815    2.05674143656612   14.37647742604343
H         2.30875539650622    1.37396624193841   12.75566621426921
C         1.11143666142921    3.53297729064468   17.18958325997138
H         1.20807074833654    3.34380345322788   18.26419075038000
C         0.37968724498656    2.35191138376632   16.56189349390650
H         0.97440434323653    1.44521291553902   16.65955532368937
H        -0.57274465390718    2.19274736676356   17.06569761626836
H         0.17876111074714    2.53509701871684   15.50771422046928
C         0.31499627220815    4.81259462736935   16.95356162713599
H         0.72762957050804    5.65231861575637   17.50546824966001
H         0.30971502121111    5.06787300275586   15.89488507201808
H        -0.71621550803113    4.67169775581201   17.27572428624174
C         3.68073001309995    4.89551170284575   17.65876475649405
H         4.74179683237820    4.61083304890196   17.59712592996760
C         3.25964364286473    4.78785329084360   19.11969276222050
H         3.32207956849093    3.75469171640838   19.46535401434022
H         3.93171986119815    5.39145992155963   19.72758080755818
H         2.24639108092731    5.15278962166548   19.27406920732478
C         3.56089843780919    6.33134639709552   17.15091665977416
H         3.74108555472725    6.37424319924145   16.07880515555832
H         2.57308318264214    6.74277729812115   17.34454215369283
H         4.29583191496725    6.96059284313020   17.65069836561007
Cl        7.74606689993293    1.02502730022681   15.64525199498355
N         6.36714741989333    0.65867646198392   18.64521564062761
N         6.83953181651123    3.33772331152751   17.55127537107090
P         4.46979728342874    0.60195694829792   15.80291136049791
P         3.65252227903713    1.85110702025169   17.36832911673737
P         2.85271990807999    3.68553410672865   16.46191418198077
Mo        6.20249016413115    1.73892312219410   17.26437789920313

