105
CSD_code = JIGBOT | q = 0 | S = 0 | Stoichiometry = C36H62ClN2P3W | MND = 5
C         7.09353586521397   13.14341735454982   -1.15330096789462
C         7.10207312713834   14.38039731461589   -1.84696608246875
C         6.63155400676804   14.42970800446458   -3.14502190770700
H         6.62232547476661   15.36790753604089   -3.67839289555061
C         6.16507272618021   13.28935245629274   -3.77715943382898
H         5.80229815814877   13.34664111514535   -4.79282230525633
C         6.14889807236236   12.08003630336367   -3.10335321877392
H         5.76536416543325   11.20404091169239   -3.60399504656336
C         6.60562112936836   11.98050050178799   -1.80274920763407
C         7.57812727465342   15.60357533327629   -1.10153459545419
H         8.35174231958232   15.26898927497535   -0.38954991419134
C         8.19197530006653   16.67312611144844   -1.99999827380025
H         8.66294156427654   17.44168813706612   -1.38988010708243
H         8.94785457640740   16.23883220781406   -2.65090446202261
H         7.43320962891520   17.15269222579803   -2.61377055601485
C         6.40785052887474   16.17375568780573   -0.29203006104208
H         6.07009127196642   15.44347633347157    0.44332970825939
H         6.70388285687536   17.08261223776129    0.22939548472313
H         5.57436846221861   16.41036522077279   -0.95076628306741
C         6.52728093868803   10.69499308922092   -1.01700830404048
H         7.28572020724014   10.74110876407664   -0.21372455623189
C         6.78711835662869    9.44003201832014   -1.84608098520497
H         7.71272022423822    9.53510470477619   -2.40990915544653
H         6.86964598354186    8.58083527029110   -1.18378284675816
H         5.97344217695258    9.25079285691061   -2.54209425661600
C         5.15519177109750   10.62675537531057   -0.33714423967281
H         5.01926682727965   11.50626514165787    0.29415961189578
H         4.36195453131833   10.60429071018240   -1.08225522321511
H         5.08687168375077    9.73721038512045    0.28481322955311
C         7.20129289534172    9.77953770544856    2.52463583386511
C         5.88697071427786    9.54554963152615    3.00252916320717
C         5.44992754892940    8.24624126631624    3.17122229334897
H         4.45453017071391    8.06125909557398    3.54501141773498
C         6.26833409879703    7.17092177129843    2.87083821121350
H         5.91085181416431    6.16158833589412    3.01211339279620
C         7.54740504947009    7.39342532745212    2.39225363655517
H         8.17514675111886    6.54574037341055    2.16394757370856
C         8.02971413576130    8.67548087739303    2.20737502905391
C         5.03264659423978   10.74270492654689    3.34512900365665
H         5.31952451685438   11.55175632151142    2.65067333691578
C         3.53325738804927   10.49864856133248    3.19546335323403
H         3.30709046567457   10.06761033122077    2.22294292423560
H         3.16516411069625    9.83017500766005    3.97066177239756
H         2.99946320809583   11.44244948549746    3.28632696690329
C         5.35596971507652   11.20789769380139    4.76971260744945
H         6.42267823964183   11.40601334825465    4.86520430296626
H         4.81292469245655   12.12097154493669    5.00400147492726
H         5.08099656628320   10.43803001949276    5.48879183944055
C         9.43129731267585    8.95596305968895    1.71805121555082
H         9.39046777708746    9.89705147098775    1.13891521472355
C         9.99852874972555    7.85802888893395    0.82258115319462
H        10.94622489237814    8.17875138089707    0.39567944795623
H        10.18191567244209    6.94834913773551    1.38947609563779
H         9.31106610452656    7.63171633596694    0.01080319716326
C        10.35086150280703    9.19356106131554    2.92083709343981
H        11.35712276004010    9.44676497871553    2.59145745518941
H         9.96731254239338   10.01693902439059    3.52307803926066
H        10.39757760714912    8.30175120434722    3.54285602981320
C        10.51849629436996   16.07440720537209    2.29518888570354
H        10.84020109755798   15.94285648919513    1.25287052688861
C         9.42782217439741   17.14367766194732    2.34479214829014
H         8.57336339706598   16.85016692479582    1.73636176902526
H         9.08194630755584   17.28948988291375    3.36759722090132
H         9.80880410572711   18.09365541575236    1.97354448667759
C        11.70960548678844   16.47715302778730    3.15124348728011
H        12.50594738831039   15.74030342936731    3.10793086767806
H        12.10791945458485   17.42192647134885    2.78283716988175
H        11.41655656308035   16.62171604733048    4.18862700688276
C        10.00769330655217   14.11039002546607    4.56795979080271
H         9.93885122553101   15.07905773234695    5.07910563952608
C         8.86812784411276   13.21237131896087    5.05691669552158
H         7.91597088757052   13.74667818451763    5.04467351224473
H         8.78330431094998   12.31926455155458    4.41207324832222
H         9.05566357129450   12.87414181124196    6.07585519828737
C        11.35930743700203   13.47062991962131    4.86876239403557
H        12.18230655615752   14.06947239643311    4.48955355209892
H        11.48179636729169   13.36669694368519    5.94610486876131
H        11.41952962130072   12.48026131146490    4.41937331685750
C        10.30256829339129   11.97645455236136   -1.19475506572810
H         9.35897042934909   11.65379390931916   -0.72350511853935
C        10.00230666442827   12.33727669919420   -2.64858002143813
H         9.34095422368959   13.19853858038214   -2.70290047924999
H        10.91213064758365   12.56430433751219   -3.19905482307298
H         9.50765714212094   11.50349076814278   -3.14368788018964
C        11.28947548649306   10.81764514391703   -1.11154900530829
H        11.56167503995005   10.61343540237462   -0.07612524425681
H        10.82350426839611    9.92475598732291   -1.52545216589291
H        12.19193174138457   11.01873748936134   -1.68506213180698
C        12.63894455872430   13.52605855768188   -0.37043666853572
H        12.99671553493724   12.50228817318406   -0.23009606126437
C        13.04554877721807   14.03511271756268   -1.74952173699875
H        12.73561265755086   13.35313073059362   -2.53599494500778
H        12.59442165565038   15.00708819885421   -1.94329964619075
H        14.12826476934495   14.14327639115317   -1.80471650623893
C        13.27805216814414   14.39330044139406    0.70548065932702
H        12.95743534889145   14.05917708666197    1.69181588306135
H        14.36314753129389   14.31251328128740    0.65444584946071
H        13.01022969585657   15.43950145485984    0.57245336562666
N         7.56304028305914   13.08910097839545    0.10570170323449
N         7.64854323779757   11.04041368544461    2.37007385154606
P         9.66734364888785   14.44976847373742    2.74732778718343
P        10.58306091880017   12.68051112121356    1.80104456617101
P        10.75146144560621   13.53163557717586   -0.20892459238576
Cl        6.40951934712305   14.00065725021103    2.86814886620452
W         8.03590828027338   12.69333550788508    1.79062555021736

