59
CSD_code = JIGMUK | q = 0 | S = 0 | Stoichiometry = C22H29N5ORuS | MND = 9
C         4.98392878393192    1.24107513003988    4.27336363279558
H         4.18847623375040    1.11022229000691    3.54957222430138
C         5.28656025974942    0.25964261937729    5.19527950692937
H         4.74312864205417   -0.67146337339954    5.18366742175862
C         6.27876709525473    0.49659423048277    6.13759810282367
H         6.53536538475452   -0.25051468741511    6.87172152168456
C         6.92020810527388    1.72626839456614    6.12400010231803
H         7.68173364234276    1.96872311752940    6.84827254727068
C         6.57588236889937    2.65265864561854    5.15756080195998
C         7.12730103246983    4.05753538922722    5.05240924494237
H         7.46065568904571    4.40084105638096    6.04585928357442
C         3.85790397593529    5.00863277319316    5.54094692733895
C         5.36381002447663    6.13464462356092    6.60120564242871
C         6.63716360804535    6.78830568824765    6.99178471569140
H         6.40200887973175    7.69666466609255    7.53915848490421
H         7.21961000366219    7.03269690033668    6.10516750027564
H         7.23045035738034    6.14436632372088    7.64285749709735
C         9.04892525731512    5.16973872404285    4.17354920422312
H         8.41139058869862    6.06467732856583    4.21273491909105
C         9.86192828758394    5.17273509796166    2.88328962474357
H        10.40805296140536    4.23697780742921    2.79680895440714
H        10.56950544855760    5.99719774216505    2.89485430162817
H         9.21447269507710    5.28103589716521    2.01909222875544
C         9.98891301009644    5.14535707125284    5.38150923840602
H         9.43829146130269    5.17134713073513    6.31816071588053
H        10.64604421966968    6.01003116947660    5.35204940996900
H        10.59101332694823    4.24010348094921    5.35782104354429
C         4.86444693489973    5.35484583559602    1.27021672283403
C         6.24555280738878    5.08154259142572    1.39523656260268
H         6.94534907163303    5.90527691832003    1.47961274468453
C         6.74646640713590    3.76675829772866    1.29887140405449
H         7.81437764573812    3.58711953814279    1.30982134451918
C         5.86408126381400    2.67619137918268    1.11860775702302
C         4.48136298116140    2.92656471664846    1.03033936539568
H         3.79326781644142    2.11668929839027    0.81826881018489
C         3.99377082022373    4.24857872302874    1.13802126783139
H         2.92768445600671    4.42481108400572    1.02597573769219
C         4.32751247927928    6.76899894610226    1.26994783435544
H         3.26145809836661    6.72540754848133    1.01799626277762
C         5.03181090009388    7.63084310152355    0.21871571940349
H         6.07613214202146    7.79040198554830    0.47619883147747
H         4.54798265734687    8.60236193337690    0.15618698867539
H         4.98373262806666    7.15860333181167   -0.76089270491974
C         4.45937490701320    7.38172696306979    2.66655857621972
H         5.49972342231498    7.39733418918367    2.98492430155944
H         3.88835843657673    6.79447926585370    3.38450095179931
H         4.07532896023380    8.39901958092603    2.67341724448582
C         6.41349136546175    1.29152456054756    0.93369367810522
H         5.65341218234393    0.53616655573425    1.12235680811405
H         7.25688287997163    1.11763503786020    1.60042876290097
H         6.76487392453283    1.17240533028125   -0.09269509024975
N         5.62381149379849    2.41385311292521    4.23781781367520
N         6.09011907284150    4.92361453595948    4.52760430863981
N         5.19468408875937    5.31163687470877    5.51647596870777
N         3.27736476749248    5.58399613852553    6.55965747300255
N         4.22282418986224    6.27488870143754    7.21924819006735
O         8.20485280387012    4.01660136516881    4.14470915028978
S         3.15726117964475    4.06596486688746    4.27296168477820
Ru        5.18985587225533    3.87076245431962    3.00642073056941

