53
CSD_code = JIGWOL | q = 0 | S = 0 | Stoichiometry = C18H26N6NiS2 | MND = 4
Ni        4.74704075228144    0.25528173283945    8.20232967481492
S         4.14291591614279    2.10815885469417    7.20985326631438
S         2.65027569088628   -0.29085779353452    7.89169269944862
N         6.64867031090663    0.72029161983819    8.34379578398090
N         5.35351171819824    4.48749342323495    6.84237239961800
N         6.53662893734264    5.12444388960891    6.94344260706156
N         5.22450968227028   -1.37085294013606    9.18794986225689
N         1.29043948122909   -2.60646573772985    8.13310607589152
N         1.38294201461681   -3.87081564443465    8.59091933386580
C         5.43762667669417    3.20708948897935    7.24747949938297
C         6.77710146786137    3.00746530960755    7.65170377255531
C         7.31702190453003    1.81007767883103    8.13479505541586
C         7.40904834525811   -0.43738548070659    8.78489795253148
C         7.40273491298435    4.27000531254663    7.42577091853987
C         8.81865997119230    4.64050198218680    7.67987354536284
C         4.19754629526664    5.15253842470437    6.28689355952465
C         4.33872017147564    5.23014046702971    4.76757635518085
C         4.06167918082108    6.53686802181060    6.91096931724804
C         2.42906864519350   -1.91751413113728    8.32978110458366
C         3.32246436247749   -2.80586462743896    8.97038022830817
C         4.62196213801219   -2.49927941288946    9.39028964953027
C         6.54754790133897   -1.22055683432714    9.76973653397605
C         2.58088142350094   -4.01845666593289    9.09662145539303
C         3.03348340769407   -5.29995989933686    9.69623214005518
C         0.07132214639213   -2.13751376763288    7.51619579706430
C        -0.21395861263681   -2.96759259684557    6.26728708904073
C        -1.07181998718852   -2.22772003301215    8.52347366381537
H         8.39093972525639    1.81228432069317    8.33679983480031
H         7.62630651925430   -1.07054349502812    7.91414147000010
H         8.35987727200146   -0.14160830746064    9.24756794696794
H         9.06043543343382    4.52273534266253    8.73567811775800
H         9.48903867015949    4.00535440588850    7.10168779366367
H         8.97328797589348    5.67640308610677    7.39298436372871
H         3.33361039720678    4.53018606773447    6.54506638826112
H         5.23005357818736    5.79731394838119    4.51068461276541
H         4.42293531562978    4.23062291619950    4.34793778311868
H         3.46985257588535    5.71806002508209    4.33553711627924
H         3.93885499711068    6.45618950901576    7.98818646725153
H         4.95687487827329    7.11743742876658    6.70587226933910
H         3.19790328199025    7.04840314335766    6.49640018443570
H         5.14818120653638   -3.28236742384677    9.94170369611371
H         7.00081200220219   -2.19468714597353    9.99665621316270
H         6.45959007681981   -0.64989224508921   10.70392658880874
H         3.90821802187755   -5.68003113955097    9.16953780291296
H         3.29876937569666   -5.15786475939695   10.74349601282131
H         2.23174961430762   -6.02929351358859    9.62810975286518
H         0.25067284559125   -1.09265308419060    7.24177307711426
H         0.60372126016498   -2.87303045594826    5.55678122090624
H        -0.32035161370761   -4.01373430047752    6.54236789691939
H        -1.13007574988313   -2.62696195578058    5.79357927476735
H        -1.19420138402713   -3.25955113854074    8.84239949422203
H        -0.85617410397810   -1.61440489225869    9.39498563926524
H        -1.99640702662135   -1.88068697757494    8.07141964098926

