59
CSD_code = JIGWUR | q = 0 | S = 0 | Stoichiometry = C20H30N6NiS2 | MND = 4
Ni        0.95790939500178    7.70258891314416    0.79481773159764
S         1.98318317215775    6.15324833107437   -0.32888467965970
S         1.89062822905904    6.91652629689768    2.62519292111419
N        -0.78344717723599    7.72332290923563   -0.22281442912809
N         1.41892332229612    4.95099775654959   -2.66648436821207
N         0.47431843852771    4.81463566384046   -3.61637914699356
N         0.82585861508606    9.56621694788582    1.33055678818851
N         2.10066606923682    7.97276044125516    5.09231800019339
N         1.94491641081198    9.10724212106703    5.80210671914659
C         1.03661044666517    5.79952227353939   -1.69343464336182
C        -0.26385626832159    6.23482207974757   -2.03847760565623
C        -1.09818979270740    7.09560661272718   -1.31027621832145
C        -1.85115981461786    8.54025370625122    0.34642824843143
C        -1.93963041387504    9.92267414775562   -0.31685020188588
C        -0.54331935196336    5.55852038528211   -3.26371233180389
C        -1.77758888076862    5.64520979628516   -4.08634819188888
C         2.66788088541994    4.23249879276129   -2.77054474468888
C         2.38765240845491    2.73210243544157   -2.75338528861391
C         3.38978003014756    4.65396093835936   -4.04767769731740
C         1.76801433625236    8.13816966829724    3.79850043350280
C         1.38517190447859    9.49303050364975    3.66084976483741
C         1.01472769691519   10.14215937354293    2.47512175988860
C         0.50473631787927   10.46220799262806    0.22207084852929
C        -0.95423122191759   10.93825418251328    0.25423375953338
C         1.53153447236622   10.03235593843661    4.97370819466424
C         1.25471227719091   11.42300814979409    5.41753398613746
C         2.55905240208901    6.76381852920212    5.73672974526584
C         3.93295485974896    7.01152270259760    6.35322357553462
C         1.54036124462737    6.33348106202304    6.78921991975008
H        -2.10965543188343    7.21412198634202   -1.71045373887541
H        -2.80896623953895    8.02133797106851    0.20459467426498
H        -1.68354169886332    8.65363724065915    1.42133478703230
H        -1.76460883728487    9.80788556305277   -1.38978202874094
H        -2.95179450029274   10.31035087386436   -0.18279018312501
H        -2.64402601212525    5.32599610051369   -3.50829068764721
H        -1.94538710393623    6.66894822904322   -4.41908661453203
H        -1.67297290411038    5.00186966314136   -4.95482821778715
H         3.25805284688439    4.51445602930951   -1.89209652246988
H         1.88840852995542    2.45300471844226   -1.82864584433087
H         3.31817243681842    2.17713301522262   -2.83013732828124
H         1.74539444685261    2.47262868858090   -3.59101140736627
H         2.76159176314727    4.43627215113297   -4.90765534878911
H         4.32708367187617    4.11346793108396   -4.14303587625956
H         3.60103926576491    5.72059174947346   -4.02900486874342
H         0.90814821000329   11.22813447564420    2.54173818768704
H         0.70475780600298    9.94773094756018   -0.72425439811545
H         1.16467649887855   11.33841050845508    0.27561642310865
H        -1.22756800957971   11.16657642242897    1.28766878052752
H        -1.03219601754961   11.86139394016025   -0.32424277848317
H         0.21142341687198   11.68130719033650    5.23850686800172
H         1.46468294809901   11.50729215854722    6.47964966829467
H         1.88099194508847   12.12879462871982    4.87273394124872
H         2.63026873007205    6.00599684970849    4.94926788796891
H         3.86455553593417    7.81510925449158    7.08181510631997
H         4.28942330185105    6.11117034439876    6.84514299273768
H         4.64602078319736    7.29600834417984    5.58326301287329
H         1.87512539458052    5.42685098578445    7.28486775798498
H         0.57545101287615    6.14288989138306    6.32527500348590
H         1.42497819739167    7.12321349549426    7.52719790321375

