81
CSD_code = JIHLIY | q = 0 | S = 0 | Stoichiometry = C42H29MoN3O4P2 | MND = 6
Mo        9.04255399021907    3.86233403900340   10.48600827563651
P         8.93912577409089    4.77112699525954    8.27170814325626
P         9.35223632253214    6.12499881641420   11.26385682624731
O         9.31643859194626    2.63574008252717   13.30568287607159
O        11.99774882850780    2.96902443314660   10.28056934516591
N         9.06125300258154    7.52567396281784    8.53585985518432
O         6.02244588355062    4.39961723305219   10.91163140560155
N         9.71350518947923    8.60999572057490    8.13292225316444
N        10.71859194327986    8.25261073479562    7.43326206014972
O         8.26032142953424    1.00818864147660    9.61090328556049
C         6.36614159993190    3.99070078692368    7.76412303441221
H         6.66653395260057    3.12830045332523    8.34831449621341
C         7.28011923199809    5.01789963584858    7.54610929490929
C         6.87294067590675    8.41879462188295    8.91853766932271
H         6.92122414647354    8.84815829222517    7.92972679315616
C        13.36222884242016    6.02762108704880    4.81800768349265
H        13.75554148758843    6.41439523000572    3.88924834352224
C         7.95277039563238    7.15478514266378   10.68423149889137
C         6.83717741871574    7.38922326145747   11.48240213712145
H         6.82441396923658    7.02298190556344   12.49850374660043
C        13.86797310680078    4.85162271019057    5.34731774606296
H        14.65253516889577    4.31921137296917    4.83015143186297
C         5.09197764037048    4.06132174015669    7.23430229694213
H         4.38984433041092    3.26070424475083    7.41335820760071
C        10.14781321239364    7.09693011161821   13.79916244372981
H        10.92530892182493    7.65027068462296   13.29271494237419
C        12.35405329783825    6.70845902427939    5.47347850477854
H        11.95309548669649    7.62714197778492    5.07302852855070
C         7.94074542355936    7.66037170169980    9.37830125642742
C         9.66527531558752    3.87288180644756    6.86129475891269
C        10.76273324882484    6.90775252432795    7.34796351978714
C        10.05459305682747    7.16092585727413   15.17897221112592
H        10.75670973253570    7.76744345028496   15.73211229503863
C         9.25461207192848    6.31601145060645   13.07260542616299
C         9.07346022196811    6.45092649832775   15.84829093867764
H         9.00458024512312    6.50328759913849   16.92454402507975
C         6.90942635736490    6.09926240274021    6.75367873181837
H         7.61219204600383    6.89070992526332    6.53361588576649
C         9.66389776587908    6.40388649956576    8.04974789353583
C         5.75213396186076    8.10288632441006   11.00635801825177
H         4.89767605179465    8.26261634959016   11.64643727721779
C         5.76999242506472    8.62585315585320    9.72520978025410
H         4.93454679540553    9.20091227818561    9.35715579698366
C        10.74852268972180    7.22363418476514   10.86112615405743
C        10.62615652560770    8.61087306576711   10.93605436854163
H         9.68830673439399    9.05312025267787   11.24724281564106
C         8.28198232005850    5.58664646470519   13.75686613386254
H         7.60000962418689    4.94874891495829   13.20769632197364
C        10.78577700829987    2.49777103320030    4.72639692491139
H        11.23059413253480    1.96868554550675    3.89690148358459
C        13.37486976093971    4.36442115708628    6.54656106479045
H        13.77765237291613    3.45708544796444    6.97158732294588
C        10.25060159474600    2.62978028717437    7.05966399028917
H        10.28023366465604    2.20359969670799    8.05433555200893
C         4.71764602260329    5.15946762851521    6.47699544739250
H         3.71907035613421    5.22259529386825    6.07113008327044
C         9.19534717953051    3.12389128889440   12.27989526250181
C        11.95658288690050    6.66222228403801   10.46904273135670
H        12.05072365088398    5.58509318900450   10.43029048035584
C         8.18671398650163    5.66170058735632   15.13322611600182
H         7.42570260373898    5.09554193422686   15.64976433044041
C        10.18512042354058    3.72950318638320    4.51922796023419
H        10.15898241861952    4.15924662944166    3.52880313471457
C         9.61988599126343    4.41223546714997    5.57761538259790
H         9.14932630228253    5.37037385460508    5.40811339505776
C        12.36667678522292    5.04053397877586    7.20423756755218
H        11.98664075757854    4.67408267063663    8.14796398000846
C         5.63025574361511    6.17057264359649    6.23134659981193
H         5.34773652736699    7.01976083474382    5.62605856971521
C         8.57770930874983    2.06922229019789    9.89736848497275
C        11.83618908553136    6.20698491052676    6.66343711384386
C        10.93203604770097    3.38101924239544   10.31288742879729
C        11.69755165826605    9.41509386316817   10.59912760597392
H        11.59467496400704   10.48860517278485   10.64575703800884
C        12.89256646626818    8.84802178361331   10.18440289999314
H        13.71955015901804    9.48174424791116    9.90239162624916
C         7.13823834323117    4.22587926327465   10.73491273406844
C        10.80961352567101    1.94534936389958    5.99474683932610
H        11.26839910943771    0.98153890771842    6.15846899569371
C        13.02496345531596    7.47144821773657   10.12589692197337
H        13.95390125177491    7.02604444892022    9.80204819686065

