98
CSD_code = JIHMEV | q = 1 | S = 0 | Stoichiometry = C48H43ClN3P2Ru(1+) | MND = 9
Ru        2.88486217649288    6.45439726299589    3.64036871735380
Cl        4.28699125918533    7.86408371217863    2.38470833510807
P        -0.80145482758438   10.78093878767073    2.68134613934628
P         1.58599685994516    6.22126191032242    1.79363999835305
N         1.20641653414109    8.90715220815064    2.97922796202636
N         1.70333836624702    8.01708046281821    3.83768605750371
N         1.19610838793606    8.20112803426490    4.99949668154464
C         1.65165815686986   10.20187660676419    0.99121151055753
H         1.61807302709508   11.10931565744112    1.57631100694345
C         2.00202517735397    9.10313647838201   -1.11574662045446
H         2.18996844488245    9.15438260717767   -2.17676674577439
C         1.51504797700126    8.96786748155835    1.60934113388642
C         1.89645530679803    7.86750651322741   -0.49620328936357
H         2.01234449690662    6.95948913696597   -1.07023605809088
C         0.33501658596734    9.23419264286148    4.94937890333193
C        -0.41130873298375    9.64837516209163    6.12831125985059
C         0.32850984485308    9.71632109988405    3.63793604301124
C         1.65440002029496    7.78604260566272    0.86702800327339
C        -2.76602771005795    9.38578377025917    3.98820701798654
H        -2.30720666497238    8.54650986729422    3.48016425968936
C         1.04822903545800   12.67036475334123    3.73915602735916
H         1.62355984043504   11.83985027760708    4.12802462032324
C         2.28387589373728    5.00224515084747    5.38493149998607
H         1.33442302026008    4.74006015471949    5.83815749726119
C        -2.23591410240508   10.66270729469547    3.81758515929439
C         5.21075655285814    7.37773942597579    6.10956700074510
H         6.16163902738056    7.42223218757360    5.56716339738056
C        -1.36361307494521   11.34244719311702    7.53949448864623
H        -1.53595753093260   12.38537936118449    7.75736491782556
C        -0.64065283498999   10.99012835291034    6.41518424872581
H        -0.23873353330924   11.75590937843994    5.76943731820456
C        -0.20739341597584    6.08586208618084    2.05748940561953
C        -1.07703039915510    6.21832464367874    0.97677073185232
H        -0.67639435192010    6.37605142890107   -0.01540107493976
C         1.89306239618189   10.26422429053544   -0.37225529594198
H         2.00491889375103   11.22656001700885   -0.84586087494296
C         1.98628421883330    3.07325982934176    3.77247616985629
H         0.91496870420039    3.26084516184191    3.81975559957616
H         2.20222332365320    2.19385345112390    4.38144469068323
H         2.25999458892702    2.84737066634072    2.74358962403532
C        -2.94430743266960    5.96071576418679    2.46314998043108
H        -4.01094621365433    5.91424341081149    2.61960582478136
C         4.84386134051568    5.52889864559403    4.39588174807101
H         5.85846411283489    5.69281397771561    4.04397272184666
C        -0.13882163657709   12.44420059380413    3.04997995730822
C        -0.71351025785460    5.90524700993323    3.33941108153115
H        -0.02720724659412    5.82889412057866    4.17493016785220
C         3.87378306031882    3.98995936922088   -0.64755967318204
H         4.89749773251795    4.01828754321366   -0.98840919642129
C        -2.44216918230732    6.15161354350663    1.18423767152317
H        -3.11789677494793    6.25358969431294    0.34910899891980
C        -0.89795815674835    8.66958076977457    6.99244832569630
H        -0.70824275876019    7.63070975636313    6.76738593646435
C         2.07283085474832    4.93412772241588    0.63028827291788
C         3.06746962008982    6.01956042478189    5.95765056318765
H         2.68117520833809    6.55699984728918    6.81492118001209
C        -4.45555577566422   10.26877804587856    5.43704145145256
H        -5.31271340852799   10.11703943881353    6.07488275158494
C         3.40143032365167    4.97017033115069    0.20371808120271
H         4.04213498495074    5.77456655687070    0.54579377245928
C         5.50365269899504    7.03145336605196    7.57190877373972
H         6.19152914308920    7.76168439017012    7.98933807117517
H         5.95979634892508    6.04681636361577    7.65098150531934
H         4.59393609696637    7.04197066085528    8.16765987524131
C         3.03112658168057    2.96725088388329   -1.06055273819445
H         3.40130919583591    2.20061364335354   -1.72372775027404
C        -3.86122766751298    9.18853368522846    4.80481396195924
H        -4.25769222471972    8.19366278051415    4.94320446264131
C        -3.95619531647308   11.54401678676193    5.23858878636523
H        -4.42643696182969   12.38880040169176    5.71880643969366
C         2.76827949523387    4.23795438711095    4.29906076396498
C         4.07830296888511    4.50349948315738    3.82211113033513
H         4.50956911155718    3.86396161652133    3.05830337371050
C         1.23239338197071    3.90055868539111    0.23041337949903
H         0.21022473673998    3.86483462281876    0.57967938893954
C        -0.84064947938652   13.52382306114132    2.51823320271410
H        -1.74059990786231   13.33940766534843    1.94607901006836
C        -2.08131015051433    5.84149472471315    3.54093611188522
H        -2.47375060548054    5.70544808727390    4.53761849578529
C         4.53251943100483    8.74541006242762    5.98870424891620
H         3.58961360503922    8.76849252412024    6.53222763548586
H         4.34071308596557    8.97417238412802    4.93933979718861
H         5.18199462236672    9.51759357697438    6.39245440349286
C        -2.85203457127671   11.74606301994775    4.42919834243224
H        -2.46734767714199   12.74531557749487    4.28708197226880
C         4.35530263489421    6.30955929967029    5.47311475433103
C        -1.86430296838610   10.36545716292409    8.38288378147634
H        -2.43355608912454   10.64489121466353    9.25605334016048
C         1.49869836541016   13.96490109497212    3.93091091472154
H         2.41690437258298   14.13472789064600    4.47305892110673
C         0.77867945772864   15.03689277753486    3.43051612117121
H         1.13301540127320   16.04405080469813    3.58677309993600
C        -0.38948771115215   14.81502612661601    2.71835852119571
H        -0.94426818128304   15.64787355501244    2.31358146796412
C        -1.62597296995949    9.02805865691243    8.10957655954484
H        -2.00925214722696    8.26515211534985    8.77042423417632
C         1.71779023917293    2.92195398583682   -0.62052827411865
H         1.06865432195938    2.12046919491812   -0.93881117121529

