51
CSD_code = JIHROK | q = 0 | S = 0 | Stoichiometry = C16H20N2O12Zn | MND = 6
N         9.74728921922229    5.09817048159313    5.94823227675809
Zn       10.36037744451403    4.61225566657150    4.04399782939756
O         8.28619724805690    4.44012963598000    3.32461715987178
H         7.58962728152775    4.46739248041713    3.98846467202548
H         8.19465322482791    5.24366706633682    2.79856189091008
O        10.78205453289063   -0.29213136384168    7.02963957175763
O        10.01773312317953    1.79759232938396    6.84602163480856
O        10.66668376903953    2.64002514983932    4.59113678207124
H        10.43584197404710    2.23351294605987    5.53217626089903
H        10.50326725471699    1.91609313269508    3.98246238823988
O         9.20175633469237    2.00568100306027    9.18178940811822
O         7.41496081723445    2.14468767553230    7.78694228607888
C        10.18609706006851    0.68337350397776    7.43052105428129
C         9.49326487159289    0.66057469361476    8.84421588916580
H         8.58718823938076    0.05115628250137    8.77528284801910
H        10.16386242557116    0.26589575262729    9.60475915917560
C         8.41699892013667    2.60686338892015    8.26967801677170
C         9.70191866299751    4.79246856580699    8.72312106773459
H         9.73921569448538    4.62462657815190    9.78798220736688
C         8.97804168338662    4.18738545131123    6.52898296009845
H         8.39659091201256    3.53328412401450    5.89711060478673
C        10.40428182825278    5.83054574496552    8.12525350430546
H        10.97023275565363    6.52942538320773    8.72066020792306
C        10.43893993891400    5.91848812150345    6.74599835909523
H        11.06031992803383    6.65306004104147    6.25652141427693
C         8.96766371494249    3.95313081908556    7.90065950223926
N        10.97125387175785    4.12661711172390    2.13888452243441
O        12.43405772498590    4.78476725123161    4.76207696690364
H        13.12948231283506    4.75657830552788    4.09694670074952
H        12.52577213681248    3.98122815432153    5.28811898559469
O         9.94651968363346    9.52110210128006    1.06450403202048
O        10.70290220621857    7.42812686759641    1.24271491483608
O        10.05419767085631    6.58439340353654    3.49709047658680
H        10.28597468280771    6.99181064877362    2.55705819684028
H        10.21210066434868    7.30865348569929    4.10690784358224
O        11.51733728127308    7.22174324408358   -1.09343364108504
O        13.30426055316775    7.07865524621338    0.30069113838270
C        10.53797621904836    8.54411258912078    0.66057077351955
C        11.22831367372677    8.56702828846367   -0.75420458392478
H        12.13531517828599    9.17517398651504   -0.68656160094382
H        10.55685664550125    8.96316951512182   -1.51327416039644
C        12.30155822896940    6.61836727767735   -0.18237241731327
C        11.01228376848602    4.43522545453313   -0.63586620300773
H        10.97318902204050    4.60433809921867   -1.70046127428575
C        11.74037032530025    5.03727380821833    1.55779025615371
H        12.32376640560105    5.69002353455523    2.18923404627303
C        10.30975183126022    3.39730352418591   -0.03789288600091
H         9.74160734280788    2.70000382895340   -0.63307421670134
C        10.27759233259189    3.30771442425058    1.34132316353926
H         9.65649150719443    2.57309196988136    1.83106932775187
C        11.74900987113537    5.27274322498119    0.18627068229383

