116
CSD_code = JIHWOM | q = 0 | S = 0 | Stoichiometry = C60H53O2Ta | MND = 5
Ta        1.59543024156292    1.20593590427687    3.91130246012380
O        -0.04707248471834    1.96346586524068    4.09080049061055
O         3.20741793287610    0.37580298995463    3.71664167959101
C        -1.23208743132508    2.37525496730832    4.51875657270354
C        -1.48518204551978    3.74089642039786    4.77242900090689
C        -2.67117520063839    4.13025257942134    5.38400069491971
C        -3.63539953858282    3.20699216709072    5.73666111509972
C        -3.42475061870215    1.87402952024158    5.44266286450253
C        -2.25244465223357    1.44657724916714    4.83095356648656
C         4.37290927005006   -0.25163617604603    3.78480019654902
C         5.58231128158624    0.40746909273270    3.46956459427680
C         6.80004544362587   -0.20782639958296    3.73365754429261
C         6.86017460058941   -1.48269024716722    4.26190048714057
C         5.68422472676993   -2.17215971677770    4.48677584181627
C         4.44813933381002   -1.58707753405027    4.24391163828931
C         2.75293197955298    3.19681101424286    4.36654169951588
C         3.23114948308446    3.25827184020056    5.75456491850709
C         4.36554153271190    2.55263965665433    6.16489421726060
C         4.87699094837177    2.69913334369371    7.43806673342689
C         4.27444528298578    3.54669580878157    8.35856143366761
C         3.11605251753678    4.21148921139002    7.97376735265613
C         2.60041927552738    4.06748828038021    6.70247238939225
C         4.86572961267812    3.76376933493885    9.71853433132795
C         1.17415204588101    0.63265520308560    1.66162039933926
C         0.70612285640020    1.78657707903051    0.87556038520490
C         1.56319581289920    2.86874329622679    0.64739567227317
C         1.17236004106807    3.94175227293801   -0.12571286282809
C        -0.10537510500451    4.00507008099616   -0.67266781339956
C        -0.96860856641393    2.94409101264487   -0.43511948554389
C        -0.56772827417955    1.84961713576235    0.30899297890963
C        -0.53794483462288    5.19475635738505   -1.47460876886149
C         1.08994945366327   -0.13401294873515    5.78124257769252
C         1.18052168806807    0.61155809853306    7.04154154487670
C         2.31444640315053    0.51301497445771    7.85139322625048
C         2.37330328182534    1.13995645933367    9.08000160173111
C         1.31354510278091    1.90919679776312    9.54118177465956
C         0.19520983336162    2.04141268478197    8.72547501408723
C         0.12325143808165    1.39992907713537    7.50731193661703
C         1.35354165689979    2.57584150524248   10.88347581734083
C        -0.54020588755805    4.79438061549772    4.36980444237319
C        -0.05504781212939    4.84751604927269    3.06632418221713
C         0.76097625837207    5.89186905424065    2.66871884015117
C         1.11251959473569    6.88663382495185    3.56523133174682
C         0.63799556339192    6.83879717237631    4.86548178230952
C        -0.18883480166062    5.80442317437120    5.26337823536601
C        -2.14623279540857    0.01858265231025    4.48482479482086
C        -1.87096577208225   -0.35371638138084    3.17334935450101
C        -1.89171297102827   -1.68569547652968    2.80289407226928
C        -2.17450986702200   -2.66402372450300    3.74128883237332
C        -2.42809372324349   -2.30429135858105    5.05415318450404
C        -2.42268132705032   -0.97223348412044    5.42461024976741
C         5.61298055612351    1.72138705660310    2.79841598415674
C         6.36068029592410    2.77448819404806    3.32040312592495
C         6.44758184351383    3.97647025977910    2.64327546911032
C         5.81723217738299    4.13374057309232    1.42015543758687
C         5.09408131568563    3.08387860924662    0.88017184273066
C         4.98146656013250    1.88894341709545    1.56966584932420
C         3.23313728820789   -2.39667105759512    4.43043452132563
C         2.26900160322681   -2.45766967225560    3.42609982878911
C         1.14978844799832   -3.25459209017254    3.57921419052636
C         0.97048226473686   -3.99181258907298    4.73737747315177
C         1.92557042974878   -3.94227325529403    5.73856544329566
C         3.05319979858476   -3.15724335457808    5.58430372776513
H        -2.83833214299022    5.18238281085191    5.56344049436486
H        -4.54995112897743    3.52414964595772    6.21397114188842
H        -4.18462502659849    1.14053975688693    5.67070225102181
H         7.70908417260013    0.32501865481069    3.49435584027578
H         7.81350624515837   -1.94560665703470    4.46594418944790
H         5.71350944952456   -3.19331500299584    4.83811144902736
H         2.09774327472719    4.03679163791094    4.14623351413342
H         3.59179839971369    3.20864167040151    3.67067521332151
H         4.85672690842055    1.89015530178098    5.46805106788170
H         5.76679475701003    2.15260304890690    7.72039525999001
H         2.62115788714368    4.86492023499293    8.67872898430886
H         1.71040788715890    4.60990753425318    6.41861984093859
H         4.09117750177903    3.75793389660976   10.48198282191025
H         5.36512613234651    4.73274334562362    9.75868482699718
H         5.59872946165467    2.99522653664677    9.95233660346362
H         0.47349441102382   -0.20082726050338    1.60136239184694
H         2.14060859980637    0.29957824085477    1.27770166147841
H         2.55159362685654    2.85225781912910    1.08461011980399
H         1.87079561495453    4.74594384544753   -0.31528077127146
H        -1.96560599162814    2.96588221262326   -0.85337307256848
H        -1.25154301732968    1.02075851407217    0.42984909771913
H        -0.89972731821125    5.98102137006452   -0.80993850274267
H        -1.34340443185062    4.93329321530064   -2.15698325390487
H         0.29382444570952    5.59791733886913   -2.04899296803428
H         1.79021466356163   -0.96417668240988    5.78732890832416
H         0.08455398601277   -0.51940077654485    5.61850542571114
H         3.14798613449310   -0.08980531401771    7.51681603107491
H         3.25206333232845    1.01959335655274    9.69753019992176
H        -0.64027123559802    2.63972853335600    9.06289554789111
H        -0.77324861890708    1.49166640271382    6.91165832456279
H         1.41197182828282    3.65837028711670   10.76808236335458
H         2.21331324118864    2.24079628396327   11.45888244645771
H         0.44885739827251    2.35305032046663   11.44788815361122
H        -0.33685604152197    4.08001355468942    2.36036197175889
H         1.11969661544513    5.92725431322075    1.65200128137412
H         1.75156198896367    7.69888829302124    3.25186462224057
H         0.91118083990381    7.61085572410640    5.57018650631737
H        -0.56246671446792    5.76862280817268    6.27719497111127
H        -1.69068305146403    0.42213603042971    2.44554682319265
H        -1.70623054467408   -1.96091810677815    1.77375677227093
H        -2.20557198322183   -3.70368388332663    3.44969955141504
H        -2.64276374787304   -3.06446790817987    5.79111063701271
H        -2.62610298311913   -0.69414549563805    6.44904221808516
H         6.86626187773378    2.65181940717495    4.26703408570386
H         7.01818089751010    4.79010415142646    3.06630362759968
H         5.89804779786300    5.06822525316173    0.88503314567754
H         4.62427889076673    3.19293352254529   -0.08674834010092
H         4.42908817167728    1.06404272402589    1.14162386629943
H         2.42120164345205   -1.90660852272505    2.50889207738199
H         0.41966706684517   -3.30813468565875    2.78666805291328
H         0.09248159504784   -4.60829689037381    4.85784740086144
H         1.79272511386370   -4.51804265924583    6.64293530396355
H         3.79271875359170   -3.11277022073974    6.37112180512883

