99
CSD_code = JIHYEE | q = 0 | S = 0 | Stoichiometry = C48H45NO2P2Pt | MND = 4
Pt        4.00315509656882    1.28362541745606    5.24300814860823
P         2.47997271146212    1.25362758609678    3.42423043712326
P         2.46191822277245    1.21804559552914    7.05225862755074
C         5.54329153693984    1.35020814525866    6.56166383305094
C         7.00613969391386    2.61072000841036    8.01326145432179
C         8.36526967682900    2.48439430254257    7.33052647760258
C         5.22984830045479    3.78420565646820    6.72645557829304
C         6.08646782270691    4.75689218939801    5.92097078319333
C         5.55047892132343    1.41746859121499    3.95777297675826
C         6.09775144427022    0.14031502455561    3.42122266429757
C         5.78532998339989   -1.07239131511246    4.02878084401829
C         6.25588250720711   -2.25667266520945    3.49589119240857
C         7.03119189413493   -2.23993000190278    2.34678416032966
C         7.35238222218044   -1.03553575979120    1.74095190781700
C         6.89436773793056    0.15108294301566    2.27853260363008
C         0.90994809580421    0.35657366340552    3.13758629441061
C         0.27574594354656   -0.26969399119724    4.20095926956938
C        -0.92562181491402   -0.92954879435715    4.01286296949158
C        -1.49927099873365   -0.97130475967777    2.75411828651607
C        -0.86751176092777   -0.35418906241608    1.68475983112164
C         0.33151510616543    0.30659312761964    1.87147913112535
C         3.31481563751770    0.87703968912283    1.84551521259330
C         3.53385914646617   -0.47192139453520    1.57153371331494
C         4.22556915747372   -0.85153911770251    0.43956078012828
C         4.71670065658955    0.11416093944476   -0.42493384137669
C         4.50908746170052    1.45511509109356   -0.15291559999269
C         3.81126302001673    1.84078242399501    0.97871940344557
C         1.96714647227871    2.98898920381575    3.24108750182701
C         0.65945305378457    3.39752992406254    3.00709424474114
C         0.35809284139542    4.74692953500020    2.94620144738346
C         1.35017934185075    5.69588400538395    3.12866979060502
C         2.65280662914513    5.29359574125314    3.37837770676112
C         2.96188995919315    3.94764294722360    3.44018612448229
C         0.79033266754714    1.93282545780143    6.89108541032824
C         0.72619630247582    3.22796582569047    6.38139077523954
C        -0.49387081251231    3.84307456261858    6.18015205488630
C        -1.66534580358758    3.15958818825402    6.46355166095802
C        -1.60892257627134    1.86542450011040    6.95322809645914
C        -0.38826585341304    1.25201736614774    7.17091407895612
C         2.18263161911707   -0.52024181808883    7.50614660601906
C         1.61793547983296   -0.91418804585550    8.71570273634847
C         1.44815890844786   -2.25938667731169    8.98697658813664
C         1.84597616772374   -3.21451652467740    8.06364685621040
C         2.42112102173728   -2.82683911169028    6.86474738106131
C         2.58833087305318   -1.48255673948872    6.58816905335707
C         2.99975572944762    1.89089547190261    8.66079740660667
C         4.00971595577466    1.20420051311990    9.33295517828296
C         4.50942357808889    1.69383897098534   10.52380013305195
C         4.01424049841325    2.87527811372046   11.05331551839416
C         3.01552638544910    3.56370434753381   10.38612227453621
C         2.50946485124619    3.07773133211766    9.19302451671898
O         6.08429757719486    0.31875931660627    6.93820455067580
O         5.97746796818891    2.48952847746446    3.55863773197940
N         5.90902068436664    2.55600964263030    7.06185730201954
H         6.88354555890173    1.77468432524185    8.70968566478590
H         6.93196479396795    3.54782286397725    8.57062707508486
H         8.41343526893853    1.53307448545360    6.80731268559265
H         9.15969582502650    2.51847490519147    8.07241246483241
H         8.51786757477922    3.28358489487364    6.61035520784218
H         4.34248831671017    3.51246471703969    6.12862868755641
H         4.88614552703087    4.26323478232451    7.65410164731455
H         5.49225259801596    5.62686972268938    5.65083845911313
H         6.43305790475245    4.27141357985829    5.01251734455396
H         5.20339218905084   -1.07028315207484    4.94503376016272
H         6.02189217208988   -3.19740377948037    3.97377963671118
H         7.39175512557643   -3.16794258941892    1.92558143542642
H         7.96272638808880   -1.02522525504143    0.84909086399824
H         7.13354476185013    1.10102101949865    1.82268199614155
H         6.94462915359116    5.09341268042219    6.49753842767906
H         0.73115265652659   -0.23922271012582    5.18079733721393
H        -1.41044657736922   -1.41254021717387    4.84869634672481
H        -2.43655534281538   -1.48613677922744    2.60227874280892
H        -1.31417045119891   -0.38801067642104    0.70154856672541
H         0.82411284336255    0.78794927551417    1.03776521822884
H         3.15720945939980   -1.21951480010816    2.25850465419595
H         4.39225547583227   -1.89879738967501    0.23495660951635
H         5.26525784921665   -0.17997039415790   -1.30747906454157
H         4.89496106698181    2.20893342058575   -0.82380796550618
H         3.65721588804157    2.88980216699837    1.18676964260500
H        -0.12575675232793    2.66637874798473    2.87947084162116
H        -0.65962330878443    5.05768907077406    2.75729554586065
H         1.10768535778820    6.74766397384267    3.08051040901704
H         3.42886264586748    6.03037263051543    3.52648077829178
H         3.98137416502323    3.63387121613812    3.63144443422896
H         1.64478353151949    3.74682484482679    6.13492126056824
H        -0.53099305205382    4.85037390226796    5.79217734901005
H        -2.62169261657371    3.63324212466646    6.29790372446785
H        -2.52231580048801    1.32990127107940    7.16870977492464
H        -0.35490991943754    0.24145001346296    7.55313884257850
H         1.32432031357791   -0.16763756020792    9.44173375956802
H         1.00774626917644   -2.56631171789259    9.92474392249143
H         1.71396094739026   -4.26336932136430    8.28552623321805
H         2.74208527171562   -3.57095193170850    6.15080152513109
H         3.04381043934256   -1.15730808273271    5.65522272863355
H         4.40820353134444    0.29178400247476    8.91056857174483
H         5.28985582673387    1.15450292210674   11.04035204825545
H         4.40731104783612    3.25878988802416   11.98339032176069
H         2.62711268434844    4.48542177181867   10.79532796208750
H         1.72868644886318    3.62160907816458    8.67996465643764

