75
CSD_code = JIJFUD | q = 1 | S = 0 | Stoichiometry = C39H30CoO3P2(1+) | MND = 5
Co        4.08070750118133    5.75302122422464    5.31418779487512
P         4.48975070315502    7.77851164258802    4.49858603412411
P         3.76365542085302    3.72002853149565    6.15696241087572
O         4.14341802557371    4.66815370025425    2.57128467679723
O         6.45921847627504    6.02243357176646    7.01235679419542
O         1.42736314331798    6.57580336243609    6.31311037417463
C         4.16219209771754    5.07168640610740    3.63826377523437
C         5.51658617470961    5.93044980491450    6.37383879303208
C         2.43718745400627    6.26148356882439    5.88550746554365
C         3.76412366954995    8.01309965025635    2.85398596493509
C         2.37472824379088    7.95290419326258    2.74492404373717
C         1.77367249721601    8.09837666644087    1.51045457724758
C         2.55370133929409    8.29118158516286    0.37903184444449
C         3.93356562095588    8.34351204813073    0.48509805771743
C         4.54533495795268    8.20311831721187    1.71937017253096
C         3.82558570912348    9.14475430742989    5.48866990518166
C         3.84852247535087    9.05100510064059    6.87755950241492
C         3.38496050011337   10.10028017653240    7.64891664637832
C         2.89531937007159   11.24469714100138    7.03896482130485
C         2.87599343328343   11.34255540487163    5.65666965849724
C         3.34063028972540   10.29857546064624    4.87687356784453
C         6.24922140191514    8.16942959351987    4.29439598750815
C         7.10787895249910    7.17743101500732    3.82383067967558
C         8.44667881573644    7.45798667934726    3.62893938075841
C         8.93642510151458    8.72482043590608    3.90921080619929
C         8.08536346599262    9.71082450231079    4.38108176029163
C         6.74200034727134    9.44021164990746    4.57538197677379
C         2.78127340668732    3.70000483238637    7.68063214283775
C         3.08594245151257    4.62461019896882    8.67831068184245
C         2.37308884467503    4.62377317462537    9.86150874456281
C         1.35000068098171    3.70680815137431   10.05233718863312
C         1.04547751517292    2.78763485538484    9.06180446338508
C         1.75686381376181    2.77849478234233    7.87434160054547
C         5.30069968551783    2.85835673376130    6.58228364195195
C         5.47492955684918    2.22772008427831    7.80963327375581
C         6.66611555971118    1.57503941079216    8.07811333565491
C         7.67799673662324    1.54939638231713    7.13273705496756
C         7.50421507124629    2.17685189733689    5.90769566022794
C         6.32106841713837    2.83379930568675    5.63238750932242
C         2.89584279855797    2.59239302512205    5.03355170357622
C         3.35610611695422    1.30211384360878    4.79076601912422
C         2.64769816906884    0.47391657665946    3.93710727175177
C         1.48808562448902    0.92458075631023    3.32821898741692
C         1.02730213877945    2.21016109724720    3.57150339254040
C         1.72950489081310    3.04525367957801    4.41843910481847
H         1.77510952495479    7.80284111623475    3.63416117098442
H         0.69816490505412    8.05963513640582    1.42712041634664
H         2.08314663923194    8.39946127005909   -0.58591307589648
H         4.53897477576448    8.49368338984465   -0.39575667853432
H         5.62230398072958    8.24674179542076    1.80077686946787
H         4.22910986594219    8.15330450877813    7.34852162066658
H         3.40265872014140   10.02538629926175    8.72550152774201
H         2.52785606735282   12.06076902736451    7.64163310116175
H         2.49802865486127   12.23531827588120    5.18233353718804
H         3.32913805368724   10.37696604823380    3.79865001132856
H         6.71969237090408    6.18831206824898    3.61273025685456
H         9.10978133766785    6.68928879880396    3.26198411953184
H         9.98314229691233    8.94151765913052    3.76221761706607
H         8.46749493005725   10.69596387476425    4.60076365717284
H         6.08079040295822   10.21084617733329    4.94505155000568
H         3.88507887007643    5.33840085951256    8.52027417499872
H         2.61145069636482    5.33839203403842   10.63454085282695
H         0.78950668914014    3.71082182701475   10.97430866822926
H         0.25025303180276    2.07355701846553    9.21177669854044
H         1.51929600102903    2.05948844849200    7.10328713602329
H         4.68554860277296    2.24567655251680    8.54754205682874
H         6.80259847163858    1.08599037058052    9.03045341422231
H         8.60497700649716    1.04160912450287    7.34972939848988
H         8.29284943788545    2.15481821080313    5.17104053383444
H         6.17501897018386    3.32919156369428    4.67999466533950
H         4.25912182495514    0.94779356308760    5.26712852009528
H         3.00477309432172   -0.52687610135767    3.74805313858226
H         0.94213090754978    0.27493974875497    2.66182196414308
H         0.12287527127749    2.56058898673368    3.09804439898810
H         1.37873193155868    4.05182781945210    4.61059942851565

