31
CSD_code = JIJFIR | q = 0 | S = 0 | Stoichiometry = C10H4LaN5O11 | MND = 10
La        7.68033689131381    3.90178704159055    1.92852922025956
O         9.52358247201405    4.84217192825135    3.99140337755285
O         6.00850049316562    3.75724885493364   -0.45401320387257
O         5.54178443291677    3.76002612734470    2.24782769714064
O         6.57464749206701    2.01733258061485    1.63284005890832
O         4.45709410623971    2.07639977662226    1.55294706858098
O         7.73279904406613    2.85420366266558    3.86097366037997
O         9.26354188240194    2.49000024590553    2.44034355740964
O         9.26991653049377    1.46270763022811    4.29419946645066
O         7.19866827673580    5.82810885728860    2.99276942287029
O         7.12082882322958    5.76641075098106    0.88077590887678
O         5.97173587193013    7.20288428850796    1.93669152660539
N         5.49617410844348    2.59924286366977    1.81339954744352
N         9.89513880599982    5.05516579724588    1.06328620095993
N         8.82057721307103    2.97387984372014   -0.24164492658539
N         8.76077653263524    2.24088813315505    3.55019463897208
N         6.72830881184183    6.28583070277596    1.94451724331567
C        10.28040781315807    6.08843507491264    1.70870491129550
C        11.53838278400418    6.46757446150022    1.48018882415281
C        12.39466863164141    5.91788352078590    0.68983330337922
C        11.99334111229064    4.84292684295634    0.02003686384356
C        10.71182381136368    4.38494851927706    0.19217905412099
C         8.23448399182283    1.95789580309226   -0.74119307198836
C         8.97431924361711    1.16792134873591   -1.51460978965605
C        10.22205427171115    1.32191163765157   -1.79276388372178
C        10.85962026002286    2.37156358782619   -1.28015244633816
C        10.14858204084382    3.22542896224491   -0.47277169540646
H         8.94839931863623    5.56001970342251    4.29642169945626
H         9.76580794178459    4.34756249050935    4.78483700007808
H         5.15946998825743    3.31549687385598   -0.58820431940091
H         5.88152700223277    4.68084208772732   -0.71134691510097

