40
CSD_code = JIJPEX | q = 0 | S = 0 | Stoichiometry = C15H16CuN3O5 | MND = 5
Cu        3.13309917855785    3.71555297778960    4.11996553551451
O         2.87467921449237    4.54513007068211    5.69290978823096
O         2.97500627486921    2.95682910017846    2.52200771062557
O         5.26382569762263    4.37720273509814    4.08937201146863
O         5.87876614363126    2.46069852022880    4.81811963721181
O         7.31646742594062    4.01615849606110    4.54425695867869
N         3.19362804020781    2.01399430133862    4.82531493377907
N         2.92268424425672    5.43219176247255    3.24884327249090
N         6.18306433099543    3.60112073616354    4.49109922240090
C         2.72151503739069    1.59418114059499    2.57152339461705
C         3.43610043757337    1.03049245545237    3.78877100150001
C         3.25279421217255    1.71554410742949    6.06948355827950
C         3.13632124157693    2.63819560499990    7.13891119218761
C         2.94553702710422    4.02215248350887    6.87192871794465
C         2.80992124168283    4.88358287516111    7.98593856512951
C         2.89072178003730    4.40969429866052    9.26869543290801
C         3.09580439589960    3.05039061966060    9.52238581447190
C         3.21182528237592    2.18365938626789    8.46877325121722
C         2.47393099630596    5.54329654504384    2.00516186232340
C         2.53106124331100    6.73555319395412    1.31214803558508
C         3.08773163380205    7.86037819479798    1.91609792400155
C         3.54976154266880    7.71356405523829    3.22050754526376
C         3.45372806606260    6.48866634516685    3.85072104005842
C         3.21232173938474    9.15379935657642    1.18485736341961
H         1.63476707240283    1.40658400927611    2.65688154473420
H         3.08505308065019    1.14178157846975    1.64050134766701
H         3.09672962074604    0.03642344260114    4.09553080539979
H         4.51882337012489    1.02089672340587    3.61850873546796
H         3.39698341922823    0.66921226465532    6.33330862879050
H         2.65614806290422    5.93267349245142    7.78532268642671
H         2.80044339689399    5.09915546194937   10.09527392070666
H         3.16389148012238    2.69421598641154   10.53807354734643
H         3.37332722581676    1.12998264821630    8.64289237586701
H         2.09370658418506    4.63688974601455    1.55685945703084
H         2.15489337897360    6.78355357110768    0.30200857196918
H         3.99798294206936    8.54500737915135    3.74157878119297
H         3.80986550812846    6.33756092309312    4.85696165510216
H         3.22261780210142    9.99351360806781    1.87469352992391
H         2.40096250509627    9.27944801167733    0.47230815306911
H         4.15060812263145    9.16317179092275    0.62980248999489

