63
CSD_code = JIJQOL | q = 0 | S = 0 | Stoichiometry = C22H30Cl2N8Ni | MND = 4
Ni        2.51907704266548   18.10816946288984   19.62302987056741
Cl        0.47821596905973   17.85315855076718   19.80105540645532
Cl        2.85463790385120   17.68363168342567   21.61565175146545
N         2.63095680861457   17.79855410160875   17.64045290049624
N         1.01874015024842   16.22132988093641   17.15376721459815
N         0.98644442652657   18.26484944836265   16.03077854439866
N         4.21630675437518   19.13285033842819   19.29954604755941
N         4.68791178978788   20.22810586119011   21.27562685380309
N         6.29177717834175   18.81201730663284   20.34976127591756
N         7.15433647259937   20.28874172020968   15.69551854309631
N         5.44073679592180   18.91618398596528   13.92302520021481
C         3.70820150457126   18.43629403902071   17.06855364859959
C         4.61538633100112   19.08630803789639   17.98272650005296
C         5.73615652260705   19.71631642785107   17.50252684801813
H         6.39595138293439   20.26541843562812   18.15766060480606
C         6.05202923318488   19.68681814289836   16.12836705050020
C         7.42072365545644   20.21813926911406   14.38636056879964
C         8.58271738751174   20.83973753551425   13.87509562494666
H         9.22488943382934   21.35945496100654   14.56985466779014
C         8.86474358171490   20.77389549348335   12.54243149976346
H         9.75270174512550   21.24889570021877   12.15063589171559
C         8.00839066554791   20.08908775540404   11.65695230580764
H         8.25975412512972   20.05418950229163   10.60661973766695
C         6.87787105897045   19.47725158182147   12.11246384576493
H         6.20935143736114   18.94714983642126   11.45121456614064
C         6.55094490632879   19.52211666817874   13.48692993626058
C         5.17744564412957   18.98459857682589   15.22337401842250
C         4.01305787696895   18.37241211933466   15.73177110798044
H         3.38478081197520   17.83457699544260   15.03749149213617
C         1.55560307385962   17.44191554697344   16.94485832812656
C         1.78616813773642   15.27698563693556   17.93984397643731
H         2.81721703547982   15.26190138079170   17.58887688188128
H         1.34812907427408   14.28848830519583   17.81817690627788
H         1.77837932242849   15.54570202688026   19.00659624848255
C        -0.41285032794734   16.00367114324250   17.20546168695168
H        -0.94684546632363   16.90247334830272   16.91720002864180
H        -0.69683649535861   15.76980190805545   18.23332395189562
H        -0.69646730979594   15.17488634760105   16.55307361579276
C         1.21155608030257   19.68788300969355   16.08422694524531
H         1.47793261995012   19.97523628366758   17.10109097382726
H         0.28706071111275   20.19672589851793   15.80684455547425
H         2.01159664019308   20.00346694292833   15.40590856354989
C         0.28889951434652   17.79615011302058   14.85789042441116
H         0.35803728742688   16.71439417969374   14.78570004688779
H         0.75709387767589   18.23525097032904   13.97170920932076
H        -0.76298213104345   18.09415288123823   14.87039905915246
C         5.06272764496867   19.38132373740745   20.29406611078040
C         3.48672408867398   21.01010775357019   21.06594689232001
H         3.50700104859052   21.45145641944869   20.07034654993862
H         3.45421895054674   21.80146157896515   21.81199343155615
H         2.58412378348767   20.38874287115187   21.16022971848772
C         4.99363247284250   19.97979077597907   22.66997364110643
H         5.65805809871097   19.12840404815230   22.76950851866651
H         4.06831546192446   19.73624832717029   23.19556902043358
H         5.44751936644410   20.86314834070470   23.12451717825196
C         6.57157416059848   17.59770267319801   19.62481350995969
H         5.64182183198568   17.05653005502019   19.45079042865346
H         7.23140448276018   16.97521150623745   20.23123889544229
H         7.05218146010679   17.79553657583259   18.66059430293245
C         7.43927212672944   19.44666447572420   20.95179903519665
H         7.18544663741619   20.45065314633504   21.28003170382630
H         8.23561548977959   19.51520059772185   20.20439384220831
H         7.81723265377362   18.87037777555181   21.80056229414248

