56
CSD_code = JIJVEG | q = 0 | S = 0 | Stoichiometry = C19H34NNiP | MND = 4
Ni       11.04770203307068    6.70616809370086    2.84784978192994
P         9.46346156397597    5.91206079355203    4.04872340819859
N        12.52998734429162    7.98325986088241    1.98443259509262
C        10.42105608199667    8.37731265433726    3.56847998997635
C        10.93284185796521    9.53219751292768    2.96813343775654
C         9.50594581652195    8.53272591025587    4.61250474909570
C         9.10629918267270    9.79208196532813    5.03357022534367
H         8.39339237909800    9.89447612238828    5.84200031088479
C         7.87057069025274    5.71444418152218    3.05048044879941
C        11.72930410628859    5.06067873972460    1.97477108111091
H        12.79934546963482    4.96666046610766    2.22518566402019
H        11.66767618632079    5.26255610605887    0.89183980920159
H        11.30453862387398    4.06179178440703    2.11376957107505
C         9.03322049120919    7.25997410983677    5.25411916071611
H         7.97299306979448    7.27326470175866    5.51799940598669
H         9.60551230899401    7.09879207444414    6.17228671421338
C         9.76314332976637    4.44905508723717    5.21650793667200
C        11.90373052392601    9.31115887595556    1.84121083381799
H        11.35706753821452    9.33107359230250    0.89082597274371
H        12.67444301899867   10.09876275146113    1.80110782876753
C        10.53944538582758   10.79306057418623    3.38994340356552
H        10.94603902074005   11.67485520059189    2.91166284318957
C         9.62156841660667   10.92087229755267    4.41834725185013
H         9.31009651780207   11.90321647844182    4.74435116956836
C         6.66067073284731    5.24200758084740    3.84972701975162
H         6.78009571882986    4.21409805599292    4.18208182017988
H         5.77537621795741    5.28403992536830    3.21526029662283
H         6.47675872885081    5.87444577073995    4.71542017212561
C        11.21682342511412    4.65209477361411    5.65280999762650
H        11.85776802686228    4.70652745603525    4.77166627614328
H        11.55172148832432    3.83018604294630    6.28383402979129
H        11.33223351860060    5.58021245641546    6.21114490778873
C        13.52949494773431    8.04918997265463    3.05529915684713
H        13.05970714367652    8.36220611023035    3.98777334041608
H        14.32387956219777    8.76777084137087    2.80378194111455
H        13.98134347165568    7.06886694017611    3.20275179145206
C        13.21665735810014    7.65844846213482    0.73824745948297
H        13.74484946564660    6.71227698419551    0.83555481422411
H        13.94613954803715    8.43920696688658    0.47862092645531
H        12.49558125182188    7.57044844250477   -0.07343169018921
C         8.14495065536034    4.76050848215483    1.88845700382354
H         9.05891623530397    5.06724695206531    1.38095621413690
H         7.32168124154340    4.79256285483660    1.17554008802208
H         8.26149606427865    3.73495572499261    2.22424544172513
C         9.64766280001229    3.11146816820186    4.48968101153829
H         8.61077689154735    2.86486334193839    4.27574025148495
H        10.05701641187305    2.31750278169232    5.11411325825832
H        10.20754547197310    3.13412222796225    3.55985765192935
C         7.59563095660904    7.09966792128175    2.45992194847952
H         7.32302282655110    7.82214579185114    3.22519783699525
H         6.78322926688227    7.04504585992098    1.73606320121866
H         8.49000293919363    7.46270253997735    1.94868243159623
C         8.85278475860975    4.42501571282902    6.44484128751948
H         9.01435760720871    5.28281282442592    7.09108223184301
H         9.07392898165643    3.53080480297602    7.02743513889309
H         7.80331532728534    4.39254729580659    6.16993914911979

