68
CSD_code = JIJWEH | q = 0 | S = 0 | Stoichiometry = C27H38NNiP | MND = 4
Ni        5.00980496128825    4.03947657680615    7.04102362086445
P         6.93807303271223    3.14856829752004    7.15856374852998
N         2.93632080003617    4.32361924433051    6.96411113064213
C         5.47656746497726    1.89346652837133    9.00828740774432
C         4.59718699774951    2.80344445643239    8.41373448735978
C         5.57741824436146    7.23515906065183    3.91091861053666
C         5.47777593452423    6.20010242030592    4.87286253026509
C         5.38154385321577    5.31778589224638    5.70749900915877
C         5.02194171298142    0.95511564493208    9.92302591356760
H         5.71570109840515    0.25476414796329   10.36991567265781
C         4.79927572718882    8.38845759735301    4.02185029691265
H         4.11889515600020    8.48995233545478    4.85639578064666
C         3.25427031270311    2.77514401650015    8.81005768687370
C         6.92927131806578    2.05232274378874    8.65592245244938
H         7.44446105102059    1.10228173999694    8.49674345854255
H         7.43254836300834    2.56889121703915    9.47861373011689
C         2.80065558010881    1.83628954790122    9.72406505134571
H         1.75769579608899    1.82598208434206   10.01238851661284
C         5.77296687452163    9.28176919758505    2.00566126631805
C         7.23048241403474    1.93782583850982    5.74036460478708
C         3.68134991362745    0.91654409497174   10.26664473809157
H         3.32469723862610    0.17801631678812   10.97025777582670
C         6.45585472581032    7.12101619635647    2.83182246410125
H         7.06384994726678    6.23193342266969    2.73643418636024
C         4.89999368118691    9.39315263960413    3.08071864745036
H         4.29112002336453   10.28183134876127    3.18135549918160
C         9.62456403194809    3.65103762539190    8.07596736278533
H         9.40658379285054    3.17855690323040    9.03021377943779
H        10.38059860420140    4.41582917403779    8.25249560019458
H        10.05322729197614    2.90579142052057    7.41281345739348
C         8.39136434487662    4.31150883566213    7.46304479140127
C         6.54707316620258    8.13164380079778    1.89709426267418
H         7.23245818210776    8.03095890541666    1.06621671484980
C         2.37171055905429    3.85196347494151    8.24188661599634
H         1.33168540422084    3.51576172921455    8.10741718435906
H         2.35999437098504    4.69318516643407    8.94523429400810
C         8.57527977017001    1.22098965577015    5.79848660418981
H         9.39077638203928    1.90012997620996    5.56339549634761
H         8.58781256947260    0.41951115231114    5.06023580648700
H         8.75854123522613    0.77756977194076    6.77474365446884
C         7.79924758623741    5.33335737410961    8.43873004140062
H         6.88704306548635    5.75952888832351    8.00750560822217
H         8.50316369325230    6.14192303808952    8.62776272683731
H         7.54545887782671    4.87142870848259    9.39211362658505
C         8.77411199946032    5.02975110728733    6.17164067408123
H         9.33349219299993    4.37463295261191    5.50815523547104
H         9.40332045364280    5.88918870804842    6.39947476957257
H         7.87843943484967    5.38440171050158    5.66315357498047
C         5.86568417617115   10.36434329745650    0.97225970564475
H         5.24732671986794   10.11390974733941    0.10871237032392
H         6.89075278096851   10.48208550125838    0.62561398607434
H         5.51810957259184   11.31455952275391    1.37198354376698
C         7.08027589602350    2.67092159363256    4.40814422941309
H         6.18504347485513    3.29402811996457    4.42631876995880
H         6.98998383582117    1.95097696492539    3.59574166438678
H         7.93335130937405    3.30892790465275    4.20128068303083
C         2.40029769554597    5.64786739066234    6.65436305784392
H         2.73070576880934    6.36603955812813    7.40371794994633
H         1.30173617405018    5.63027980792643    6.63509310292444
H         2.76923349897757    5.97415630736303    5.68350902767879
C         6.08320417950630    0.93041839613412    5.85690799278769
H         6.16900732219940    0.31148073822981    6.74669902386249
H         6.06590241954939    0.27483277892058    4.98726566649222
H         5.13380492602500    1.46749097067085    5.90042718916893
C         2.52561339907658    3.39770521814457    5.90315858958450
H         2.99771509031486    3.67864475743982    4.96120626591741
H         1.43420257654896    3.42050941974304    5.77079866112261
H         2.81847995173304    2.37935931813959    6.16107835137939

