73
CSD_code = JIKBEN | q = 0 | S = 0 | Stoichiometry = C34H32Br2N4Pd | MND = 4
Pd       -0.00028254079960    0.00000132030926   -0.00074610169376
Br        0.44738302620805    0.38143079826684    2.40039498854340
N        -2.81623234331890   -0.14665472848229    1.06636019435177
N        -2.58312053927373    1.61176071441127   -0.14192748420397
C        -1.93186454843892    0.51954936813484    0.30105759969879
C        -4.01098048535027    0.52116266682127    1.10541977830593
H        -4.85259191894174    0.15210054731015    1.65407195366490
C        -3.86032904747426    1.63319993009578    0.35140748299150
H        -4.54652282363784    2.42322492459711    0.12635893208279
C        -2.59967041753429   -1.43982265417648    1.66739434584137
H        -2.92348013641556   -1.41033470566624    2.71215543882706
H        -1.51569032428844   -1.64175453648366    1.65458564012273
C        -3.33264038060052   -2.52398504992418    0.91487521664225
C        -3.94766092404050   -3.56253875033448    1.59941139754520
H        -3.90304622839284   -3.59255432691561    2.67886872324749
C        -4.61200984910130   -4.55905827537746    0.90649524173651
H        -5.08525831996591   -5.36456952176944    1.44840744735910
C        -4.67688600954725   -4.52010169022576   -0.47579593151612
H        -5.20163112973390   -5.29463206781350   -1.01519576704239
C        -4.06598238710839   -3.48578298991714   -1.16392724169232
H        -4.11013154182183   -3.44848883651252   -2.24253569724709
C        -3.39198364964771   -2.49501511562726   -0.47261248034041
H        -2.90566950387260   -1.70054427554069   -1.02282695127640
C        -2.02557353029341    2.64252363607750   -0.99309172550554
H        -2.83663295672199    3.07128220919314   -1.58659638203912
H        -1.30239029354659    2.17161044675946   -1.67104420391780
C        -1.34718908819658    3.70359375164777   -0.16328304517632
C        -1.96696914728821    4.91671655243747    0.09878362857144
H        -2.93842106833004    5.12814134649218   -0.32614114492354
C        -1.34220377981572    5.85858378505497    0.89776413167487
H        -1.82899853708973    6.80248290367159    1.09466920345311
C        -0.10094016367616    5.58881944820018    1.44755629859614
H         0.38258126627414    6.32173563668488    2.07597277797997
C         0.52096249297609    4.37770950197388    1.19368978914722
H         1.48647209035287    4.16197268370521    1.62359588044545
C        -0.09951820566152    3.44261697723871    0.38716017316197
H         0.38837353246698    2.48373343354120    0.18556553791525
Br       -0.44729392510054   -0.38129064903817   -2.39882181052971
N         2.81575677732678    0.14683182888494   -1.06643493355060
N         2.58297287275566   -1.61164580054723    0.14181278433825
C         1.93152651466158   -0.51950857728917   -0.30111299667988
C         4.01046807534189   -0.52101326380879   -1.10592952117774
H         4.85191421757432   -0.15191990496924   -1.65481899949535
C         3.86002939725931   -1.63309288944640   -0.35194035055852
H         4.54629374512914   -2.42312937275999   -0.12714101440726
C         2.59903197351046    1.44007907824333   -1.66726507750468
H         2.92212897055256    1.41055832403178   -2.71223840666012
H         1.51508558382002    1.64216370700000   -1.65370449592496
C         3.33274400520284    2.52400930079793   -0.91514530825375
C         3.94914986063042    3.56152652672606   -1.59999877696224
H         3.90496777759640    3.59103051967357   -2.67948256749038
C         4.61434647562053    4.55767617600268   -0.90735501531546
H         5.08865739503890    5.36238333039342   -1.44950263187738
C         4.67865185454819    4.51938109456889    0.47497884180983
H         5.20405463570411    5.29361483280524    1.01416086729923
C         4.06635259122175    3.48609164958405    1.16343604524925
H         4.11013169903466    3.44928612544646    2.24207225490181
C         3.39154390357112    2.49569739675329    0.47238548671820
H         2.90428431667173    1.70193799281424    1.02278697311339
C         2.02572493738423   -2.64239088675793    0.99319426171980
H         2.83699071920327   -3.07119887410818    1.58639037666528
H         1.30279809206928   -2.17148886089882    1.67141932155828
C         1.34696559858219   -3.70341462691769    0.16363954506422
C         1.96652907804072   -4.91661185460048   -0.09860795740149
H         2.93813204427070   -5.12810764493298    0.32593561924209
C         1.34136936451749   -5.85845748575932   -0.89730732345579
H         1.82799068252102   -6.80241784799626   -1.09435094283810
C         0.09993495238055   -5.58858350588570   -1.44665511845635
H        -0.38390981820495   -6.32147692861530   -2.07484825728531
C        -0.52174281913284   -4.37739460220338   -1.19261690511646
H        -1.48737841803424   -4.16157857807776   -1.62219101873842
C         0.09911415103097   -3.44232772349460   -0.38634683394000
H        -0.38858787064904   -2.48333306348177   -0.18469375939912

