91
CSD_code = JIKCOY | q = 0 | S = 0 | Stoichiometry = C34H52O2P2Pt | MND = 4
Pt       -2.17870821481797    4.64726831483455    6.02094767189284
P        -2.95433853156691    2.78500397968446    5.00225410178362
O         4.93129238264438    3.78122752717169    0.93309442851440
C        -3.05728989473709    2.89941086593376    3.17941152344989
H        -3.38718955337390    1.95269887036480    2.75266549475229
H        -2.07391444771951    3.16159011965405    2.79357688833362
H        -3.75965748852826    3.68653133326859    2.90877833685982
C        -1.89470750416408    1.31154141010115    5.23367105503778
H        -2.29374089281126    0.45956351352466    4.68392635792934
H        -1.84349954659706    1.07042343724917    6.29460032062101
H        -0.89259262496501    1.54823829570266    4.88112299735840
C        -4.60978547132562    2.13549352002656    5.43813768351223
H        -5.35435009440138    2.90363992991858    5.23806152557185
H        -4.63057781685939    1.91239767951783    6.50309967455732
H        -4.84024126286559    1.23727424197204    4.86614015043768
C        -0.54486240437829    4.44135720263067    4.89385390714813
C         0.42869054904863    4.29403139901042    4.18511017748101
C         1.56700844422129    4.13554992329662    3.35801514485814
C         2.58266968886753    5.09629432180944    3.34465957836205
H         2.49713569136300    5.96592548216741    3.98104208415788
C         3.68075516052099    4.94416322710172    2.53011741736839
H         4.46793648596814    5.68240416898103    2.51255837855841
C         3.80330381740095    3.82681086462905    1.70189066937926
C         2.80209788090226    2.86251732043992    1.71302975629226
H         2.87001722132431    1.98393202038402    1.08926398096194
C         1.69934237976807    3.02067772312350    2.53239073044353
H         0.92505897603539    2.26507508869834    2.53220530181114
C         5.09962359850030    2.70954358974316    0.03288417470031
H         4.24490952962324    2.65349417388596   -0.65702044193145
H         5.16805046271993    1.75923421278928    0.58316097300940
C         6.38531211089697    2.95212110983181   -0.75174474766462
H         6.60092153662372    2.06644682910592   -1.35291931588000
H         7.20152632982306    3.09222460883600   -0.04096318945749
C         6.27358263519290    4.18268457224902   -1.64846801680608
H         5.99969440940407    5.03958323761787   -1.03069947805936
H         5.47356890968539    4.02696969187669   -2.37696099713946
C         7.57751773721195    4.47879752210392   -2.38354018284363
H         8.37571299209593    4.63462389274579   -1.65403757973357
H         7.85364353207671    3.61653337172733   -2.99596367107719
C         7.46234580033152    5.71392438953449   -3.27381480282257
H         6.66905209844711    5.55654391808340   -4.00805582901350
H         7.17888709859430    6.57232131816399   -2.66122875947890
C         8.76802794764530    6.01854823071293   -3.99764073306697
H         9.56627471251831    6.20320903408004   -3.28193676792384
H         8.66123537955955    6.89902573927890   -4.62726273259996
H         9.06070259433083    5.18045866844149   -4.62644713110327
P        -1.40151475611979    6.50979734646910    7.03929537741650
O        -9.28857284680753    5.51536782589209   11.10791227180361
C        -1.29743874039552    6.39420477410994    8.86211035480580
H        -0.96755437919945    7.34070255259800    9.28930085308310
H        -2.28022538064914    6.13132602401981    9.24903409088072
H        -0.59437500145996    5.60728209916431    9.13158421203385
C        -2.46277222077249    7.98243601773380    6.81085967015230
H        -2.06379715195904    8.83415731770795    7.36096990448384
H        -2.51514760871164    8.22457108310817    5.75029272530064
H        -3.46450278539521    7.74500133661696    7.16404160624906
C         0.25289579675071    7.16103402748870    6.60274009636899
H         0.99797276369492    6.39307116063861    6.80163566868241
H         0.27221848134317    7.38467355011539    5.53788123494399
H         0.48313347127490    8.05900151307358    7.17516901350401
C        -3.81189686733920    4.85326941270421    7.14864636401782
C        -4.78558752021776    5.00114122672574    7.85715114697983
C        -5.92397915881631    5.15994257150692    8.68390913743904
C        -6.93936435784807    4.19899542435511    8.69775324276460
H        -6.85349468475033    3.32885517345805    8.06209763250425
C        -8.03757354102773    4.35149635227184    9.51198064434983
H        -8.82453537694131    3.61304099459615    9.53003211610478
C        -8.16051040685912    5.46948760200802   10.33928324867664
C        -7.15957287798629    6.43403566272418   10.32753455860870
H        -7.22782841920362    7.31316997835694   10.95048317932798
C        -6.05664808535377    6.27543927772505    9.50855775201977
H        -5.28258142839025    7.03130078308103    9.50810988414657
C        -9.45713071306263    6.58759598608516   12.00740349191627
H        -8.60216415072945    6.64465593877021   12.69689639908662
H        -9.52637185946425    7.53745478238593   11.45644550598439
C       -10.74233143898075    6.34471700637083   12.79273865016450
H       -10.95818833072005    7.23067214182166   13.39340140810744
H       -11.55879500469870    6.20360882203290   12.08243860591657
C       -10.62931198422202    5.11482675571631   13.69022726801777
H       -10.35520213466034    4.25768097688426   13.07289361684203
H        -9.82899823097086    5.27156718130033   14.41817547316469
C       -11.93263451399268    4.81834588143269   14.42624171619556
H       -12.73116849274244    4.66154679404159   13.69731684388722
H       -12.20895350304612    5.68079616660382   15.03831667500375
C       -11.81605313887370    3.58382125744050   15.31717518550437
H       -11.02233169602634    3.74214292562630   16.05075355403475
H       -11.53248459795342    2.72524534110263   14.70488962577871
C       -13.12102499877077    3.27879193053274   16.04211739447263
H       -13.91967683392730    3.09323535941678   15.32710990935812
H       -13.01320843564542    2.39873353355955   16.67214240748500
H       -13.41375920258094    4.11703023848822   16.67068417371839

