103
CSD_code = JIKDUC | q = 0 | S = 0 | Stoichiometry = C54H42MoO2P4 | MND = 6
Mo       -0.73316359415380    3.84763965289564    4.61951361700143
P        -2.23932688360350    4.14871054099847    2.84071242632753
P         0.31422189764601    5.69287427681129    3.69021325046570
C        -1.67126829276002    5.48089351505391    1.85229943177274
C        -0.89066863934499    6.52922214345817    2.52290379755600
C         0.39766046157978    2.51266051582870    3.78981104277462
C        -2.60745354729901    2.86952945286956    1.60701933182519
C        -3.41232988954465    3.16053116817666    0.50831194287006
C        -3.68192971305687    2.18121271459773   -0.42775317451041
C        -3.16155037497790    0.90562510322926   -0.26787654316749
C        -2.37648278376427    0.60840087997038    0.83312534313295
C        -2.10004045536307    1.58830344960512    1.77102315045786
C        -3.98035692348917    4.54880148030332    3.24752001366832
C        -4.71136457710148    3.58793958613970    3.93813181876893
C        -6.04977900167068    3.79565532666690    4.20904220662789
C        -6.66867068895618    4.96347522992219    3.79014754400780
C        -5.94597140747899    5.92032946505821    3.09754621666328
C        -4.60639816672072    5.71264237826125    2.81790325901014
C         1.69984600042930    5.34966221455437    2.58412190093069
C         3.02521943171762    5.68403836613815    2.84225032926713
C         4.02602550509647    5.22523355298919    2.00418473616661
C         3.72021913342164    4.42615555199179    0.91625751278906
C         2.40311853554019    4.06988088599660    0.66860253322435
C         1.40215804118714    4.51805859411061    1.50607890840722
C         0.77692817987991    7.17935578811357    4.62120621915405
C         1.51671179988499    8.15036595218924    3.94262205212117
C         1.86188655216945    9.34097469377176    4.54764583231227
C         1.44918213181485    9.59032907167154    5.84622911059365
C         0.67188894881521    8.65976484905591    6.50836798351582
C         0.31152769705069    7.45597131099127    5.91076682123899
O         1.11057816637446    1.78329448170259    3.26215795162416
H        -1.74153778492669    5.45063127280809    0.77185855838879
H        -0.31870158333645    7.13157855846063    1.79878582784399
H        -3.82977256565630    4.15341082564359    0.39934517999027
H        -4.30325968714912    2.40781667192635   -1.28259520761143
H        -3.37603293461347    0.14168423513543   -1.00109281746290
H        -1.97989081955460   -0.38817125156539    0.96220464924842
H        -1.49413107495474    1.36955601928644    2.64245328279219
H        -4.22086077208919    2.67570340157847    4.25170592099636
H        -6.61367841363494    3.04625121985325    4.74527435600679
H        -7.71621141751850    5.12586212156019    3.99952329505917
H        -6.42735499099685    6.83042511134468    2.76689066769526
H        -4.04211828012973    6.45375444123841    2.26528662598078
H         3.27835044421369    6.29236656725412    3.69891588206381
H         5.05306217497186    5.48957230190523    2.21140060265790
H         4.50758513085284    4.06886899453339    0.26883705626291
H         2.16082738610677    3.43085069659019   -0.16810148874130
H         0.36952743461954    4.21977618001357    1.33920425341274
H         1.81689268897175    7.96118532109381    2.92026388966098
H         2.44305991431230   10.07451334904945    4.00849935465449
H         1.71216123490225   10.51682777648269    6.33482642186951
H         0.32110886575639    8.87406739139030    7.50919481094869
P         0.77289064815521    4.14839268425102    6.39725215090499
P        -1.78041249213802    5.69290376945697    5.54838777427597
C        -1.86466691282343    2.51225630239570    5.44741289044621
C         0.20551475113569    5.48067103782758    7.38590859361621
C         1.14092338755451    2.86940038757840    7.63120966950551
C         2.51400146769038    4.54793907829743    5.99034234089182
C        -0.57549835821096    6.52898079872660    6.71574376099175
C        -3.16593409051498    5.34884334188745    6.65432247977577
C        -2.24364833891864    7.17909336894471    4.61726023220070
O        -2.57734767633775    1.78270782202153    5.97512183888286
H         0.27682743962053    5.45065868197457    8.46628470488512
C         1.94666622092334    3.16036032927456    8.72931152597572
C         0.63212534204476    1.58857222946749    7.46839007147193
C         3.24467481541449    3.58679452416346    5.29977083004581
C         3.14031899065881    5.71178398492902    6.41954875848957
H        -1.14745842130683    7.13107837282554    7.44006045231383
C        -4.49142604317691    5.68279379656106    6.39629347321100
C        -2.86787565272126    4.51723421673787    7.73225852821765
C        -2.98375300493653    8.14981457087334    5.29585184957516
C        -1.77811722390826    7.45588714938607    3.32780211365256
C         2.21577484365227    2.18143559185138    9.66592570387354
H         2.36504573179731    4.15294464397341    8.83742954646481
C         0.90799108650559    0.60908649204068    8.40689493031091
H         0.02556655728195    1.36979785939150    6.59743457937427
C         4.58305713750866    3.79422607841106    5.02851467110777
H         2.75392024123358    2.67459586625403    4.98645470456563
C         4.47986134413895    5.91917895208956    6.13955186310621
H         2.57619832397583    6.45326194601277    6.97184402641964
C        -5.49199908085969    5.22370172190360    7.23447696010418
H        -4.74477659865368    6.29133302327390    5.53983778785024
C        -3.86862042532408    4.06868265386807    8.56979448245504
H        -1.83511707823650    4.21933047523090    7.89907259040570
C        -3.32918569554941    9.34037196477424    4.69091591912202
H        -3.28375692430473    7.96052789924580    6.31823898269370
C        -2.13865523604211    8.65969488019926    2.73032381149554
C         1.69391966430349    0.90629848373116    9.50729180076000
H         2.83780657523033    2.40800896530567   10.52026939346324
H         0.51039126535954   -0.38720382018025    8.27869499454226
C         5.20224464203103    4.96203044362796    5.44702975749395
H         5.14674458978034    3.04453504535744    4.49246053620133
H         4.96149969833089    6.82922496351952    6.46998806179429
C        -5.18584607944625    4.42461171519821    8.32229993007498
H        -6.51913562174867    5.48772208282358    7.02735807844670
H        -3.62608429303757    3.42949129762347    9.40630786087683
C        -2.91631977757528    9.58997372990146    3.39243572061856
H        -3.91072395027403   10.07364022472964    5.23002863133513
H        -1.78798572868871    8.87408828335934    1.72947756304706
H         1.90808102652829    0.14263169364805   10.24090328163027
H         6.24985403956261    5.12404268306897    5.23767044851284
H        -5.97307444003965    4.06678863620243    8.96958672111628
H        -3.17972317914915   10.51631567729655    2.90378493304283

