61
CSD_code = JIKRIE | q = 0 | S = 0 | Stoichiometry = C20H31Cl3N3PSi2Zr | MND = 6
Zr        6.38822941133851   14.59171500001455   12.88442854741131
Cl        5.19692445047183   13.53872129062608   14.63570061015388
Cl        8.21417606055222   15.04607923649216   14.23919603548082
Cl        7.25052256819474   12.48684570152560   12.24304067484955
Si        8.23411428937736   15.30284645056513   10.09188852877048
Si        4.69255502980910   17.21110309968936   14.30433865690405
P         6.13002728119635   16.97642389738074   11.55721596127601
N         6.86027629312348   15.61328933555529   11.09608467902333
N         5.47686661366300   16.48436972327218   12.94758662495369
N         4.49433024623541   13.88834021122112   11.62696588426684
C         4.83607082571842   17.45037622382817   10.36991915698102
C         4.18335755670073   18.67502166930693   10.43394335752795
C         3.13989648366726   18.94519455501784    9.56629094601629
C         2.74130176167874   17.99314863514871    8.64096019965212
C         3.38263749997955   16.76577816333274    8.58508441343499
C         4.42638417165880   16.49275652879970    9.45134780186800
C         7.27519851040921   18.37344546459017   11.75989141240966
C         8.12153642706988   18.31386550201399   12.86183511329043
C         9.06424647546113   19.30605729332939   13.06302453528139
C         9.16412644119596   20.35749950741539   12.16435811241809
C         8.32771653648660   20.41166612982937   11.06111132720086
C         7.38530080192934   19.41878227207556   10.85302127982082
C         7.74089498657185   13.81305897310033    8.99404711846428
C         8.63746063527701   16.80357341974229    8.98047052524455
C         9.71533351064081   14.90163963770715   11.23174537730204
C         4.50360190327247   19.10368387318332   14.11305306746362
C         5.76257594095176   16.83316301743875   15.84424212465026
C         2.97435462998659   16.37314608873570   14.40182658275860
C         4.30477127087929   12.78538929471389   11.89872781078094
C         4.06021243806063   11.42350335527477   12.23145786786606
H         4.49698434968303   19.40967088983147   11.16144571954635
H         2.63459744226831   19.89899999558404    9.61111325158088
H         1.92680565156210   18.20841275318998    7.96516397015465
H         3.06649695314742   16.02375196922837    7.86660633531351
H         4.94518030587737   15.54264288511091    9.43250881304839
H         8.03004906342555   17.47976692373372   13.54950710997514
H         9.72198601713072   19.25894708027235   13.91781787395155
H         9.89810445144249   21.13394748279294   12.32108050808446
H         8.41247221207398   21.22731278007643   10.35797204409350
H         6.74096749549498   19.45114359531987    9.98604203606737
H         7.32623348892985   13.01136858924240    9.60099715301490
H         7.00396684216134   14.08589855933704    8.24345418583813
H         8.60722229271894   13.41972052217699    8.47347666013015
H         9.10539984041186   17.60358820788571    9.54478337761780
H         9.31639064876608   16.51962933675827    8.18471193547226
H         7.73715748261770   17.20251111252255    8.52312795055103
H         9.90383982415290   15.70767680254978   11.93997822284310
H         9.51792039735217   13.99778551390892   11.80872205328748
H        10.62679558666577   14.73485654400884   10.66622354454924
H         3.68790750705741   19.34875802018042   13.44125956200969
H         4.28562212259632   19.56199303711062   15.07097746560154
H         5.41070890801826   19.55865501679938   13.72577059408438
H         6.72542989024831   17.33845542986040   15.80775165113084
H         5.26252450647348   17.14381765909152   16.75636915379255
H         5.95755989130821   15.76382496550379   15.92643565252399
H         2.38532837399019   16.56720364137049   13.50880467287872
H         3.08905926989763   15.29531741186269   14.49754634381939
H         2.40878367898691   16.72543249261226   15.25760077234118
H         4.94531469534616   10.84139729088388   11.96638008046972
H         3.18360039730221   11.04909024911326   11.70449910356624
H         3.91078936178612   11.36203969207100   13.31186786763202

