45
CSD_code = JIKYAD | q = 1 | S = 0 | Stoichiometry = C12H26AgN2S4(1+) | MND = 6
Ag        3.29897820230907    0.03466305925025    1.63499899333338
S         0.55970670907159    0.44174164793423    1.50630549790738
C        -0.15652134716210   -1.04399003268178    2.28974407411762
C         0.67658680270199   -1.74530840281521    3.34883477784568
S         2.40528411121340   -2.17112623224962    2.94443566352279
C         2.25456248598058   -3.35245597891721    1.56046664342162
C         2.24222778211647   -2.73509517267429    0.16794052206445
N         3.40153033790745   -1.87631208646772   -0.05809427283779
C         3.44626774243115   -1.36581564503671   -1.42641699799629
C         4.54498885050493   -0.32776781531184   -1.59850453339062
S         4.08968616734937    1.22803235831765   -0.74339260347065
C         5.72374406437505    1.94826432743005   -0.36252082469981
C         6.54694925458511    1.27316047663826    0.72071880256495
S         5.75424992641443    0.96196758021905    2.33534566497347
C         5.33013474603497    2.63133292732649    2.94353872846704
C         3.94770154571377    3.14059415736109    2.55413133461749
N         2.89634108228695    2.19907588518047    2.92919205770272
C         1.56079616192746    2.73145949117290    2.66770938626844
C         0.49127363872748    1.66773197714410    2.86689502958161
H        -0.36385970845386   -1.71138789021282    1.45391568163942
H        -1.10871411573663   -0.74222794462182    2.72854181313296
H         0.77561883565689   -1.13169743368705    4.24477581316437
H         0.17985252904760   -2.67619691764471    3.62744860871211
H         1.35310688845415   -3.93922603089366    1.72999437138789
H         3.12288556152133   -4.00243196176731    1.67808789948045
H         1.34827302152089   -2.12190394893834    0.02416697830819
H         2.20672688483434   -3.56314541941772   -0.55862468087181
H         4.24216627374779   -2.43357505010467    0.10210068735716
H         3.61096774956157   -2.17546483963241   -2.15366212091883
H         2.48057666666376   -0.90125852931445   -1.64802082922041
H         5.48659447783455   -0.68166007080538   -1.18158684196152
H         4.67475403304906   -0.08809504474678   -2.65354702969385
H         5.50483041509720    2.98167302872231   -0.09603998632725
H         6.29272212289261    1.94996453689743   -1.29328985027542
H         6.87418727980725    0.28070802142618    0.40921208650198
H         7.43412305674234    1.87783943984790    0.91636462250572
H         6.10487533143876    3.31108878491124    2.59339830774990
H         5.40738516949207    2.54071824841601    4.02771461384260
H         3.88040945792996    3.29172799864137    1.47304706685672
H         3.80821726824602    4.11832937591369    3.04357489374631
H         2.97705723754778    2.01877533013124    3.93103955488348
H         1.33217519915605    3.58736036675373    3.32098989801564
H         1.52872628049157    3.07772829382497    1.63011125416984
H         0.63558269870554    1.14005471267372    3.80856409101461
H        -0.50022887973728    2.11965042180710    2.84429515280591

