44
CSD_code = JILCOW | q = -1 | S = 0 | Stoichiometry = C17H21Cl3N2Re(1-) | MND = 6
Re       10.97288215860453    3.73227276358397    1.27530747696392
Cl       10.36286189086561    5.40187857360822   -0.15274905468799
Cl       10.19246453856335    2.01723246206302   -0.45481080544699
Cl        8.81804597363974    3.85180063946867    2.06067974909212
N        12.63051638979085    3.78785581012341    0.61279520919375
N        11.29465150863995    2.41662828601324    2.43840222080300
C        11.49488584331538    5.35604404321243    2.73641880354745
C        13.85264885179036    3.77288675832304    0.12355921815562
C        14.05282420853367    3.72664264192211   -1.28603546878950
C        15.33859187925149    3.66435422804692   -1.78241187513092
C        16.43985704683758    3.66942960635941   -0.93863829440923
C        16.25209578486044    3.72164386016097    0.43317811716902
C        14.98515097566412    3.75935541266531    0.98223546987640
C        12.85616572340034    3.71278900423241   -2.17611791924336
C        14.78069071966357    3.82346997706358    2.46427359968567
C        11.49690927272259    1.39315910135308    3.24265651364173
C        12.20646505097668    0.25450211669485    2.76174849072846
C        12.37691707896567   -0.83154877009743    3.59582390113876
C        11.90292249449263   -0.82274047290651    4.89948516824616
C        11.23926317264709    0.29403691523002    5.38171658219250
C        11.01872765562925    1.39758909608443    4.58085927084267
C        12.72207536079272    0.26240194151863    1.36033286929116
C        10.32031504837300    2.61351699327372    5.09922983778371
H        12.10467664456033    6.11465143810538    2.24839535575482
H        10.56791190114271    5.82418295471146    3.06017266936181
H        12.02480878169461    5.00115224797426    3.61847612379223
H        15.48490642863358    3.62055226158630   -2.85335684506494
H        17.43889690574832    3.62974938279538   -1.34926196673579
H        17.10982422172684    3.72003561314804    1.09293616936445
H        12.89927636411321   -1.70226648504607    3.22259151008744
H        12.05158250473658   -1.68290769660979    5.53710623049433
H        10.87194016870655    0.30200282061315    6.39946103378512
H        12.22999240784893    4.58045051582066   -1.96890796914209
H        13.14346332451368    3.71448616217447   -3.22547731268850
H        12.24383496865225    2.83453760647050   -1.97017282219453
H        13.85918593852675    3.31038936559446    2.73277301625410
H        15.62252302509869    3.37586585984024    2.98907809669274
H        14.68497363425763    4.86068772090228    2.78525889222773
H        11.91612571725594    0.49129764471411    0.66385130883122
H        13.46944045812538    1.04729714810216    1.24108840742861
H        13.16340576672580   -0.69747037137214    1.10110414972460
H         9.68720722549608    3.03815492467602    4.32211920302279
H         9.71811660557808    2.37253955484760    5.97297513810181
H        11.04857837883885    3.37571034295062    5.37885053025747

