49
CSD_code = JILGUJ | q = 0 | S = 0 | Stoichiometry = C24H18N4O2Zn | MND = 4
Zn        3.98939550636128    3.98940006205374   21.34300381587557
O         2.17318094245425    4.03316098311491   22.12219846318713
N         3.25893752769403    5.07907517097627   19.86486814098359
N         5.44098606471546    4.73049869547269   19.78777516685606
C         1.08762716058271    4.48006480034620   21.64824809225595
C         0.95245052179339    5.18732666301374   20.39217167091093
C        -0.32622910820374    5.63560199398348   19.98083921122012
C        -1.44261395259361    5.42889229592085   20.73407391856010
C        -1.32804297187401    4.74439000647780   21.95807044192505
C        -0.12057465789367    4.29077532551743   22.39359452733471
C         2.04814213020860    5.43423546967865   19.55041077356262
C         4.38943428526502    5.22847173931071   19.12306811949274
C         6.63481918753704    4.75502836934076   19.23081821714036
C         6.86417361367873    5.28869262874842   17.97163356401763
C         5.78362344380544    5.81703587165099   17.27601141211205
C         4.52848886639681    5.79336280105431   17.84929648152466
H        -0.39817444423717    6.15865456899353   19.03604078590544
H        -2.40795692872706    5.78022370519927   20.40264834384161
H        -2.21523731778590    4.57980573560802   22.55386847523711
H        -0.02850107098892    3.76256175066024   23.33111453054776
H         1.84518702252391    5.94719867798249   18.60363908197897
H         7.44056203057033    4.32962152544678   19.81425062459871
H         7.85433300053036    5.28916422647776   17.54515063042971
H         3.67351180160932    6.19079449875160   17.32533492333200
H         5.92200817412335    6.24036226582669   16.29157410342618
O         4.03310860134073    2.17317441401771   20.56383182216703
N         5.07907313885956    3.25893920160964   22.82113515577745
N         4.73053015853264    5.44099297866901   22.89821365384114
C         4.48000403524604    1.08761588251591   21.03778843445045
C         5.18732396779693    0.95245201722223   22.29383067560763
C         5.63562268696079   -0.32622345978514   22.70514828318768
C         5.42891107435680   -1.44260800593062   21.95191346017413
C         4.74441210618131   -1.32803210930703   20.72791364276709
C         4.29077147782829   -0.12056909184387   20.29240661366977
C         5.43426820690542    2.04815067667895   23.13557334781136
C         5.22846801246801    4.38943454462316   23.56293726355915
C         4.75507554732830    6.63482938297342   23.45516305761597
C         5.28871199252796    6.86417832636636   24.71436079483627
C         5.81701631373330    5.78362066263226   25.41000110354287
C         5.79333423282189    4.52848418289803   24.83672026223636
H         6.15868969454010   -0.39816673919380   23.64993880138687
H         5.78024828499559   -2.40795117213848   22.28333564621195
H         4.57979187535039   -2.21523484644778   20.13213348290039
H         3.76253908686520   -0.02849757490111   19.35489723257645
H         5.94724120076218    1.84519502035537   24.08234321720260
H         4.32968010558980    7.44057377030033   22.87172629425727
H         5.28918483796805    7.85433781587008   25.14084312305253
H         6.19074233642992    3.67350302784664   25.36069240568715
H         6.24032019706607    5.92200126336815   26.39444870922701

