55
CSD_code = JILJIA | q = 0 | S = 0 | Stoichiometry = C23H26BN4Rh | MND = 7
H        11.44180922580636   11.03815790992182    4.42028416114607
Rh       11.34426935760146   10.91255446745889    6.08954886485569
N        10.59881373381381   13.02404243246018    3.76349196944694
N        10.73296938124263   12.89734145846790    6.16109232768907
N         9.42317089171702   10.87659335984638    3.40168744914613
N         9.14979974446353   10.43751187191180    5.74988815347890
C        10.14084203905906   14.92133821994349    4.92327077195925
C         8.71259977401345   10.49449234486390    4.48783560294949
C        10.50852088865007   13.54039320834733    5.00901087405233
C         7.38763477109562   10.13364573767593    4.08318810608674
C        10.29607200244459   14.02918053854788    2.89070944404588
H        10.29942566133519   13.84072429246535    1.83486720039685
C        10.01671865828246   15.19717582887034    3.53935731051648
H         9.75350075515438   16.13637214356831    3.09543689413196
C         9.98899657052375   15.63686243899462    6.10306851901463
H         9.71410192463139   16.68111773339537    6.09507800816630
C        10.20080790931116   14.95377004276064    7.28607126940115
H        10.08945248549751   15.45327166303545    8.23581901087011
C        10.56707913564871   13.61112154605022    7.27283464122212
H        10.73228165448283   13.09258968006381    8.20636763169468
C         8.59185812440966   10.76790212810056    2.32340581610248
H         8.94819715830038   11.02483216424684    1.34495300164394
C         7.35399310744846   10.31720029925603    2.67893860208468
H         6.51912562202382   10.14097028015584    2.03016187213748
C         6.48875617330174    9.72954673784409    5.06058569703373
H         5.47712182857250    9.44489920490295    4.81043729102476
C         6.94034013308570    9.71561675295874    6.36718374993593
H         6.28443647437274    9.42599502860995    7.17358624887418
C         8.25451118980046   10.06886667112494    6.65986901290296
H         8.59455840792343   10.05468281228896    7.68705460049154
C        11.66257919785627   11.30730408112800    2.07195562030082
H        11.18726596714328   11.74409955835398    1.19599388065056
H        11.80156678921825   10.24867572127448    1.86378644602711
H        12.65195328479798   11.75352435222234    2.14865721075578
C        12.22625785932963    8.93677402077655    6.18345545922651
H        11.81885223262689    8.13889291508476    5.56072403963439
C        11.46288337028899    9.22412191546369    7.33381265968791
H        10.52058379885873    8.68891638583626    7.45269968404715
C        11.67601391099435   10.37460295567637    8.14000944519986
H        10.89506257422949   10.54470479560609    8.88502901354918
C        13.04720275049590   10.83604634089729    8.62132121485415
H        13.70241015851685    9.97221279373917    8.73654450598954
H        12.94454671058747   11.29291699181504    9.60847242731344
C        13.66503332591735   11.84858639570234    7.65201303294403
H        13.27274234790225   12.84193925517268    7.88353999678143
H        14.75211188210089   11.88764253617120    7.78012152497476
C        13.31048799230638   11.51215684591078    6.20309595740727
H        13.44775887307417   12.42262709832758    5.59791903535005
C        14.17854946620744   10.41175197033755    5.59836912131315
H        14.06672330170720   10.43550335837972    4.51138688481747
H        15.23525524962892   10.58381730652753    5.82970735012033
C        13.74153360736953    9.03317394557695    6.10451769832845
H        14.17511521593219    8.83979782559105    7.08572043037604
H        14.11345379994363    8.26222938188328    5.42667320988846
B        10.81609154895180   11.53351225440665    3.42889004795971

