89
CSD_code = JILLUO | q = 0 | S = 0 | Stoichiometry = C26H56N6Zr | MND = 7
Zr       17.39702330184069    3.28139576586922    6.10836913038628
N        18.32504921567750    1.32754454797616    6.55719453878248
N        15.46641947765482    3.27531032469210    7.45582217434395
N        19.69194473199349    3.00024358190372    6.06391581645774
N        15.37882466855812    2.43342484707380    5.41647948956686
N        17.20890645813794    5.47274899406315    6.39629758653892
N        18.14095215470299    4.33286356950479    8.05872518181383
C        19.58230129636356    1.74267468169237    6.43445253342160
C        17.70165971450036    5.49634302393797    7.62997322683158
C        17.98174604798996   -0.05535009949678    6.80719534273109
H        18.74479267290849   -0.57480371977491    7.41293663480810
C        14.99695431497110    3.82321858501819    8.71859237551896
H        15.91756722215451    4.15641493850524    9.21497817677144
C        14.69206241330324    2.86100852295955    6.47082255679442
C        18.63921706712146    4.11023419308755    9.39822623852556
H        18.08733277568608    4.71044396817341   10.14686039302961
C        14.77670847739817    1.88021073145991    4.20824626888079
H        15.62840195726674    1.74584956939448    3.52960334641939
C        16.65723200891267   -0.08642263508750    7.57597573070512
H        16.80629779946237    0.27827050480206    8.59020473733552
H        16.26178519306760   -1.09986657742089    7.62508661069058
H        15.94468541607695    0.56645361822513    7.07004988205786
C        20.95769382884495    3.67705486192673    5.88279443267927
H        21.66477904345889    3.44748364857006    6.70259306355720
C        20.68957118299664    5.18338061924058    5.89882578530388
H        19.95474395513576    5.41870144205661    5.13138362567325
H        21.60781677477278    5.73824549399186    5.71264303730700
H        20.28068996101086    5.47713471535420    6.86082037993515
C        13.79290008173070    2.80986621548511    3.47294672868252
H        12.79546782883699    2.78562196406905    3.90108557698158
H        13.71525553470874    2.50119429723122    2.43212756866459
H        14.16231342007947    3.83225969681091    3.50410297668172
C        18.34558355607853    2.27264841325634    3.21453523905053
H        18.58593863513796    2.43276647086173    2.15186321882740
H        17.65119747992292    1.43091527772997    3.26068327774865
H        19.26605442260313    1.97222723888157    3.71550755822583
C        14.16468067588517    0.47679909159542    4.38976768949163
H        14.83885980260985   -0.15078315063413    4.96672287571267
H        14.01440540831106    0.02063791629669    3.41306501352574
H        13.20355103731965    0.49609823961113    4.89642729410282
C        13.17258441816196    2.87715895473203    6.52926817393820
H        12.82070486997724    2.79691791802092    7.55059151129620
H        12.74791433083347    2.05283347090252    5.96934159798000
H        12.80243133260677    3.80976229608139    6.10416842622461
C        14.11064220695451    5.07620044782352    8.60783946867362
H        14.55869958705420    5.77308487240660    7.90285040391398
H        14.04668259726255    5.55912125330514    9.58186414507918
H        13.10061749372860    4.84995479870940    8.27968242826920
C        17.74776825064370    3.53152073944166    3.86659644803074
H        16.84577850025805    3.78656032247431    3.28136937583360
H        18.46491542636295    4.35252979590821    3.68110562454326
C        20.76370094075724    0.82648093405852    6.72000037424497
H        20.63905595585931    0.33990024244072    7.68687106344877
H        21.69880402339896    1.37687604800251    6.73503703683641
H        20.83159306478014    0.05191062201728    5.95778732919140
C        17.73005095783204    6.77591154323011    8.45736741450897
H        18.14948723412536    7.59167235528607    7.87242449109486
H        18.32960288158550    6.65710670486308    9.35365651335024
H        16.71844692695930    7.04996495097755    8.75645764499583
C        18.41853320829546    2.63097630296986    9.72981678908791
H        17.36481254237462    2.38491173267519    9.61959159273473
H        18.73557164837836    2.41272461259331   10.74880656101288
H        18.99059479446084    2.02068490549227    9.03411630173435
C        14.36019295539637    2.77745207188790    9.65750154882656
H        13.30268532505867    2.62256438406683    9.45785134552023
H        14.45424377255209    3.10625351221088   10.69068776503688
H        14.87230101687794    1.82413822568711    9.54633060746743
C        17.83699927594179   -0.80378298019702    5.47250569368453
H        17.10155247568144   -0.28663826556520    4.85951404351285
H        17.51857686089648   -1.83178047586913    5.63482921573018
H        18.78309132377701   -0.81328993719381    4.93578419206444
C        15.43636997499207    6.19155585144242    4.92232501949309
H        15.79756919662534    5.50552883793880    4.15731667909317
H        14.95353920268564    7.04606468450376    4.45014888909034
H        14.70857164124363    5.66884805239015    5.54085331467373
C        21.63440210226044    3.29988126869452    4.55377481657638
H        21.79537290286412    2.22680333723762    4.48593599678917
H        22.59706618357781    3.80026885788025    4.46771099705629
H        21.00338583807767    3.60790941597819    3.72484446389162
C        16.62290032142737    6.64489558119274    5.77953597423336
H        16.24551222933138    7.35806939125770    6.53242803342572
C        20.13549373516205    4.43771553479511    9.52839444201355
H        20.69655990555319    3.83370501206010    8.82058453850502
H        20.48323883593315    4.21738565086040   10.53617104188841
H        20.33081436498599    5.48703424481566    9.31802917115875
C        17.64621800861251    7.37490909935132    4.89528940654087
H        18.50604858807303    7.68955729628095    5.48213888596779
H        17.19646024715142    8.25263239867970    4.43565936332369
H        17.98887350741832    6.70028973631062    4.11374052385720

