33
CSD_code = JIMBUD | q = 0 | S = 0 | Stoichiometry = C9H20AgN3 | MND = 3
Ag        3.08894565867671    1.21642434740743    4.25419789452401
C         4.45993515304431   -0.26908230184598    3.93216718746870
C        -0.14564226422968    0.86637751871386    3.63015393424917
H        -1.18771016028808    1.23587681662404    3.64866830095742
C        -0.10987308133541   -0.56127535395332    4.16533341494577
H         0.92330866376797   -0.91655143761428    4.18690085369637
H        -0.69137533426431   -1.22114961597791    3.52800329115983
H        -0.51773354308006   -0.61108648870121    5.17358787443552
C         0.36851231425909    0.89452693913108    2.19373872572376
H         0.26411768498544    1.88038750833710    1.74753061969933
H        -0.18871046331435    0.18870381291427    1.58435165108254
H         1.42481266622898    0.60719928963101    2.18075688173642
C         0.51622131058552    3.13168879520458    4.33311604106652
H        -0.49713960789886    3.45172868711154    4.62719895826306
H         0.65638877580822    3.39259031508344    3.28132826026258
C         1.54891099141195    3.88127378341512    5.16962588881613
H         1.30344107645280    4.95620454249231    5.17948409999294
H         1.50091973167333    3.51852143556690    6.19920087340641
C         3.97696791928435    4.19096998497806    5.44302733576726
H         3.74782670174498    5.23492565494064    5.72683368603769
C         5.24293295004012    4.16776206043322    4.59281402366873
H         5.44949645145667    3.14278185058426    4.27527226999867
H         6.09149778194743    4.53257452143836    5.16417568254793
H         5.13130759511089    4.79213603222738    3.70792494142908
C         4.18691750495971    3.36387995886042    6.70807728031840
H         3.33992834986539    3.44073838032172    7.38532155993993
H         5.07181484425566    3.70826080034923    7.23564450781315
H         4.33140834938715    2.31376146911454    6.43476522726907
N         5.23527592719554   -1.10525940470817    3.75211354514774
N         0.70177688552364    1.69810750073919    4.48670800180322
N         2.88248904623459    3.63038101449166    4.64851743090081
H         0.49099753886427    1.46316261070066    5.45494770596697
H         2.93133258169613    4.04195897202413    3.71831204993313

