57
CSD_code = JIMFIU | q = 0 | S = 0 | Stoichiometry = C19H34NPSiZr | MND = 13
Zr        1.60424924443720    2.56000809655051    2.84441493970731
P         3.09785251079094    2.43985049250270    5.25687406352352
Si       -0.39251755213676    2.61737929538205    4.59190406243062
N        -0.46092073452050    2.65407523571373    2.86435785620166
C         1.78676135714653    0.02205885170386    3.08798406496019
C         1.12985491641933    0.29522420702782    1.87087586904997
C         2.05876607080747    0.90103479447744    0.99629200880377
C         3.29879733057400    0.96772297043660    1.66650820450696
C         3.13259996401881    0.42452436908692    2.95033434329163
C         1.32271587299605    4.91081977053210    1.99954861579692
C         2.03486654430820    5.05224261777653    3.20767158209022
C         3.32960216222436    4.52585462606105    3.00869904617098
C         3.40698234706566    4.03883973174917    1.69398405714735
C         2.16260638347100    4.26355032982815    1.06711645558942
C         4.91263503397713    2.34309312243797    5.70099944312315
C         2.68020714686172    3.84056654761575    6.39158304588190
C         2.54281023682338    1.03802399653919    6.32994614394805
C        -1.20231576043758    4.15038753310571    5.50984017077719
C        -1.36074445961901    1.14334726263591    5.45097717143087
C        -1.57077476827744    2.72664108516000    1.94022069091172
C        -2.41805463599465    3.99079541569950    2.19053167306023
C        -1.05837075827396    2.76693648367231    0.48581854093898
C        -2.50026085762995    1.50528329508642    2.09516836273702
H         1.36568095353978   -0.53164708056399    3.91747801922776
H         0.13166766285533   -0.03440354983599    1.61646391276753
H         1.90312565576629    1.11361094835598   -0.05673688076924
H         4.24497472443899    1.24271899960938    1.21931384577899
H         3.93585880518490    0.20265490188839    3.64134305059649
H         0.35451301434090    5.34747504673237    1.79551415899025
H         1.69300684596944    5.60123373426033    4.07575608733618
H         4.16784937454294    4.62766143311520    3.68645463469272
H         4.30864358505799    3.69772873782338    1.20241724347495
H         1.95853598535464    4.12259154733344    0.01055109257553
H         5.05068459154707    2.29834466993624    6.78050889691465
H         5.43057642700933    3.21805136007918    5.31232742575897
H         5.35405974962020    1.45685150288044    5.24873277916183
H         2.99705676584354    3.61376343916945    7.40949970813110
H         3.18620166981114    4.74532445673684    6.05921007239378
H         1.60466295235385    4.00639440020385    6.36715059724110
H         2.96117113302862    0.10351108143854    5.96032606394723
H         2.87414552542403    1.19026012435144    7.35709567005501
H         1.45642373806248    0.97717678442947    6.29678691646346
H        -0.90672596138148    4.18958149360129    6.55614375326433
H        -0.90179203523732    5.08648184687072    5.04521777819075
H        -2.28904925547563    4.10742286414927    5.49073575273700
H        -1.16204611133845    0.20010645479489    4.94772603743478
H        -2.43672853282829    1.30341306919592    5.43898980829282
H        -1.07062558105910    1.03057916181494    6.49343272457163
H        -2.88133911985477    3.93399676556484    3.17016846531997
H        -1.79081820095232    4.87828179491981    2.16413304581136
H        -3.19775673977716    4.08583975088288    1.43717334251672
H        -0.47817060469760    3.67201284990474    0.31324416963676
H        -1.89909070183681    2.76344432657104   -0.20722138906293
H        -0.43852052389628    1.89499224383095    0.27863259201297
H        -3.31186464803530    1.54641057277625    1.37115912258597
H        -2.92184049294938    1.49095445043763    3.09487850730575
H        -1.94441824546058    0.58261968595954    1.94924258256653

