51
CSD_code = JIMGUH | q = 0 | S = 0 | Stoichiometry = C19H25MnNO4P | MND = 8
Mn        1.75861917889593    3.75741005341899    3.08281567758839
P        -0.38325601009449    4.07856966943852    3.34288906274991
O        -0.95946948927206    4.89567933241194    4.61287042471433
O        -1.30415880837951    2.75357707360350    3.11148397803368
O         1.32716068106251    2.81843225210859    0.34962854415215
O         1.68869404080984    0.98145208819560    4.00479059373242
N        -1.27644801546599    5.02633925685661    2.18393856892083
C        -1.78100288954954    5.96987625935758    4.21591548968952
C        -1.96756222003226    6.02882003157998    2.90015529195979
C        -1.99044187301852    4.09405994994901    1.38508107141142
C        -1.97600729686996    2.85863985525156    1.88065842080740
C        -2.26047224325709    6.84948525621820    5.33506136672894
C        -1.04147134005051    7.42762841713660    6.06594365925176
C        -3.12433436785285    7.98674684485378    4.78781686230370
C        -3.08157297051090    5.98941971391571    6.30452168335813
C        -2.46257496070120    1.55099260515299    1.32773188148742
C        -3.32393270424869    0.85430189815118    2.38724865880171
C        -1.22140107202508    0.69919020185552    1.02532420971192
C        -3.27317996368357    1.77063080545857    0.05024336857696
C         1.50869896170578    3.17663836964430    1.43459072330235
C         1.72324697812297    2.07992083499863    3.64847970467537
C         3.42917264323047    4.29743779776501    4.35093361747049
C         3.77686335097729    4.49215447355033    2.99027899624444
C         2.90515091182745    5.47629512872121    2.45737720220047
C         2.01284346331070    5.86235385165864    3.47353719535201
C         2.32884205831597    5.12548873933896    4.64299066342878
H        -2.56358261509626    6.73699227774414    2.35702538083802
H        -2.48310171815669    4.43988676192108    0.49710822085637
H        -0.41867279475949    6.62402962268922    6.45012219681254
H        -1.36352448299310    8.04660198952401    6.89987607206485
H        -0.44674597718618    8.03963462214828    5.39062118935575
H        -3.46489956522209    8.61209299386549    5.60936548271003
H        -3.99575448019788    7.59365984743992    4.27088899692816
H        -2.55706880171298    8.60550677288216    4.09713685840383
H        -3.41100524085761    6.58950319855039    7.14921373394823
H        -2.48177508936582    5.16201138552042    6.67435815377773
H        -3.95661834948993    5.58380043313741    5.80183171236539
H        -3.64794542129323   -0.11705655664491    2.02292901721080
H        -4.20330117041214    1.45207772954871    2.61640658550396
H        -2.74978576827169    0.71439783201913    3.29853237804999
H        -0.59807338437087    0.61402576520511    1.91345794346831
H        -1.51992931146101   -0.29460834897371    0.70224711289332
H        -0.62820089760097    1.16225571484787    0.24117885924583
H        -3.61734495278620    0.81246981531202   -0.33023272975777
H        -2.66218682362211    2.24444357059322   -0.71273490707281
H        -4.14046347554527    2.39618008552336    0.24578589320939
H         3.98811642129844    3.70843661167322    5.06631902306675
H         4.66424894702865    4.10682157614888    2.50531072628960
H         3.00156378919859    5.94520992248460    1.48720265427981
H         1.30334534506872    6.67895238618610    3.41480893078260
H         1.90929977451560    5.29593323012296    5.62533359831114

