43
CSD_code = JIMLOG | q = 0 | S = 0 | Stoichiometry = C12H24Cl2RuS4 | MND = 6
Ru        0.00030567111828   -0.00013404538890    6.09142307060452
Cl        0.32504734811786   -1.27912308106094    8.08412010002156
S         0.19285647665021    1.99522963910317    7.33962100574704
S         2.33863582794469    0.23207525206071    5.85925460673642
C         1.34019855253657    1.72697111562273    8.73648179406619
C         2.80931303984897    1.42324606972039    8.46918071894696
C         3.11134196306830    0.27425611466220    7.51482164261500
C         2.71316561340642    1.83937532374605    5.07450750933406
C         2.37688119502972    3.13687341575820    5.79905753861137
C         0.94516505552877    3.29358021444909    6.29645073308426
H         0.87374400782954    0.88241222248872    9.24791534388066
H         1.25784609501434    2.61704944626973    9.36164433378750
H         3.24078165886744    1.13688345597287    9.43514565717784
H         3.33229567036702    2.32548136268724    8.15479545956356
H         4.18650999492491    0.21571113692731    7.34041633685002
H         2.76400849472783   -0.66700251016935    7.94583054468172
H         2.14067552516264    1.77300469909798    4.14699435305098
H         3.77879806503843    1.81405303456285    4.84298124598903
H         2.53573541230457    3.94123726484950    5.07173260201321
H         3.08221088047490    3.31257385260486    6.61015256340124
H         0.85390002101011    4.21963232869747    6.86559692572582
H         0.25859128667566    3.32244303771581    5.44780062944709
Cl       -0.32653116488818    1.27909572501059    4.09916770022731
S        -0.19293746413308   -1.99530721405803    4.84334116767152
S        -2.33826649436384   -0.23207583819873    6.32366506613171
C        -1.34022992209327   -1.72702997522754    3.44646344578259
C        -0.94520119730129   -3.29364298304674    5.88653306430744
C        -3.11117478723966   -0.27420056599289    4.66816928827984
C        -2.71299792301981   -1.83930749134890    7.10849690018276
C        -2.80931365754724   -1.42323537709214    3.71380757243065
H        -0.87375280877281   -0.88248704157989    2.93502505317974
H        -1.25789979635959   -2.61711892045384    2.82132223173484
C        -2.37688664740962   -3.13686293859793    6.38396550609400
H        -0.85396562497060   -4.21968804169978    5.31737945446797
H        -0.25860661527528   -3.32251066814737    6.73516537850926
H        -4.18634499435458   -0.21556628921413    4.84259461832085
H        -2.76372891032170    0.66701842508705    4.23714251709466
H        -2.14040804047497   -1.77294307751491    8.03595907309751
H        -3.77862534384141   -1.81392385027553    7.34008983629811
H        -3.24079920558673   -1.13686047520871    2.74785544330084
H        -3.33232806013797   -2.32544110306663    4.02822613618241
H        -2.53575726807698   -3.94120469831934    7.11131127201478
H        -3.08225192947853   -3.31253695143223    5.57289455935512

