55
CSD_code = JIMPUR | q = 0 | S = 0 | Stoichiometry = C24H20N4NiO4S2 | MND = 4
Ni       -1.02777551486090   -1.49211285646021   17.32859590332340
S        -4.75494635490984    1.35177978623276   18.01082962566153
O        -0.76721565279369    0.01759036181936   16.29617800208568
O        -4.23441434648705    1.57936771744340   14.81564284583024
H        -4.02708321723282    0.79191583891453   15.35549520286361
N        -2.95477687238827    0.28655436428491   16.78879353833330
N        -2.73293056135599   -0.85467113927153   17.51799187531299
C        -1.85859184899673    0.68551462309321   16.17035487201113
C        -1.89890693077117    1.88478924734143   15.32839507277114
C        -0.73295510930574    2.61941738279983   15.12109275175290
H         0.17410801425935    2.28170331593508   15.59886091580330
C        -0.74427191949000    3.75463566283338   14.33762737920444
H         0.16301422830178    4.32051735802392   14.19121067738404
C        -1.92663755253636    4.16521208947028   13.73925412131884
H        -1.94269197517263    5.05429708167298   13.12689646949451
C        -3.08755409514103    3.43655894385899   13.91284478246474
H        -4.01044615247146    3.73220556110206   13.43918896989897
C        -3.08735912283513    2.29198051662457   14.70153967354081
C        -3.69323743005395   -1.15657494481813   18.39130248648726
H        -3.60924797324749   -2.11205388609353   18.88998457668541
C        -4.74234227265626   -0.31189831072769   18.70062631160142
C        -5.78529929947098   -0.44410281962605   19.61834823674846
H        -5.95054769643736   -1.35712854668548   20.15849119928401
C        -6.54617420429343    0.71389656979304   19.78063594191541
H        -7.36660451499641    0.77767156642406   20.47481806504270
C        -6.17604377214614    1.76029275737898   18.98513443071149
H        -6.53411769465312    2.76763805208926   18.99736769069836
H        -5.41257343960223    1.09124365129805   16.84532619396498
S         2.69959526974747   -4.33591255075515   16.64639752756105
O        -1.28828841845299   -3.00173403516779   18.36116294286607
O         2.17907475429892   -4.56356720735740   19.84129028934982
H         1.97163394244081   -3.77609907414741   19.30149580350743
N         0.89923140846985   -3.27077478152308   17.86840293497516
N         0.67735590809980   -2.12962168269259   17.13912667340147
C        -0.19692735059688   -3.66968983952909   18.48694040142183
C        -0.15657025453983   -4.86886957277268   19.32902843225053
C        -1.32257059914021   -5.60329455334569   19.53679547711032
H        -2.22971715112790   -5.26557048662983   19.05919740477880
C        -1.31120649775522   -6.73834949505251   20.32050359198403
H        -2.21853937352601   -7.30403671687664   20.46733800761946
C        -0.12872644351690   -7.14901330449067   20.91859240062619
H        -0.11262571480437   -8.03799145934793   21.53110363306390
C         1.03224855172429   -6.42056151150920   20.74453768647464
H         1.95524372146707   -6.71627277593107   21.21796393834613
C         1.03198307989830   -5.27608707687246   19.95569600287834
C         1.63772177458138   -1.82763278277837   16.26591132777343
H         1.55369538463239   -0.87214904133810   15.76725260335608
C         2.68691726555298   -2.67221181629873   15.95661293199313
C         3.72983098755506   -2.53999242443920   15.03887939281371
H         3.89518607497187   -1.62697442657690   14.49883847974660
C         4.49072614521053   -3.69798164209704   14.87655144502456
H         5.31111089800230   -3.76173773801649   14.18233075732363
C         4.12065388533918   -4.74437866490418   15.67204011609930
H         4.47875170643960   -5.75171252078895   15.65973369639886
H         3.35723432677952   -4.07532276351119   17.81184828906004

