61
CSD_code = JIMXAF | q = 0 | S = 0 | Stoichiometry = C26H30Cl2N2Pd | MND = 4
Pd        0.98073755319883    2.23417110270608    8.88428365215877
Cl       -0.22777075754410    4.10354733790961    8.83334858932018
Cl       -0.95470609176852    1.09848574157635    8.85179681092864
N         2.10388806191599    0.69903914963289    8.41745502349256
N         2.86191879790956    3.06043072394449    9.20353478371034
C         3.35741184247212    0.97055744781579    8.26123684519931
H         4.04894435149650    0.26072028601597    7.81071564852833
C         3.83219301329798    2.22871559772375    8.75561838090385
C         5.18676118614234    2.55849619055200    8.83968341644017
H         5.92613776269167    1.87738958521283    8.44914390352219
C         5.54381126889447    3.74652652297421    9.44496492584599
H         6.58129877823300    4.03240119529087    9.52803594361788
C         4.54555467844336    4.54837023251564    9.97782190892303
H         4.78823815036497    5.45326636498312   10.51137860585967
C         3.20712734399039    4.17983857223785    9.84202328745822
C         2.16163258671319    5.01333191148902   10.47429685897439
C         1.94954701353565    6.31675265172793   10.01422600999128
C         2.66735890284681    6.82805650269864    8.79996344551669
H         2.66377254338390    6.07474955639687    8.01415145822011
H         3.70310800709919    7.08171210106352    9.02596817236733
H         2.17495983964247    7.72025730532421    8.42268550872273
C         1.01608735665301    7.11174869007430   10.65972748540898
H         0.83269770697838    8.11263098958771   10.29782597241992
C         0.30757499004414    6.63001953989978   11.74461679432135
H        -0.41911453219872    7.25855507895562   12.23708018750734
C         0.51037585723565    5.33552748941892   12.18226854873834
H        -0.06365032173775    4.95212689584397   13.01284221840791
C         1.42840944315282    4.50651488206104   11.55359154125147
C         1.57805336338610    3.08464756217059   12.01882271643079
H         2.61124736025386    2.73966498268605   11.95683713678846
H         0.93750888114835    2.42750823371678   11.39381535122658
H         1.23828611267519    2.98701997743636   13.04759028786054
C         1.54511822747921   -0.48793178957676    7.92427268889560
C         1.38912382376194   -0.67082631394868    6.53988318898628
C         0.77139070476795   -1.83656466695520    6.11300903683423
H         0.61108543536954   -2.00325726872501    5.06061962853950
C         0.35140148802587   -2.79678553513752    7.01515258939084
H        -0.11381832115823   -3.70179803014983    6.65417193739804
C         0.50753060853421   -2.59683399413330    8.37315947526891
H         0.16089782177806   -3.34755064767306    9.06423853757932
C         1.08693869301179   -1.43292274615001    8.85156078418020
C         1.27171038241360   -1.17359504847335   10.32878726593040
H         1.31871135340387   -0.08048610253232   10.47565663090189
C         0.10260806573812   -1.68973961235017   11.16390079752646
H         0.20060668141681   -1.33775517713329   12.18870356178990
H         0.07238518913069   -2.77620879772733   11.18349178411652
H        -0.83089076268562   -1.31196182634039   10.75505251440782
C         2.59569564164489   -1.78339502422137   10.79912260107568
H         2.74642320504780   -1.58831212381476   11.85858502650797
H         3.43548258680628   -1.36290222631918   10.24773475511372
H         2.58906512642297   -2.86032343482379   10.64329182369130
C         1.79154583968848    0.41740302763907    5.56361991129878
H         2.71606683116947    0.89125777674427    5.91619992302740
C         2.06903856578139   -0.11229887568773    4.15629530346837
H         2.53171142779167    0.66987278698607    3.55806551145229
H         1.14868441059979   -0.40880254448017    3.66043161448389
H         2.74445979318902   -0.96475935997143    4.18785990309057
C         0.69619601905447    1.49286614388424    5.51117082845216
H         0.93269097962809    2.22875642150767    4.74495443457570
H         0.59858947417989    2.02274044463873    6.47706114807411
H        -0.26445034260623    1.03883414329767    5.27859537389252

