37
CSD_code = JIMYIO | q = 0 | S = 0 | Stoichiometry = C19H13N3NiO | MND = 4
H         2.70854339219200    1.08706889614915   14.79977293706396
Ni        1.63641987200033    2.99946751439016   18.02377613711485
C         3.76674154132236    0.97200479180400   16.64663622486628
O         3.11788892439952    2.15437143517794   18.65627735329675
N         0.18623942392034    3.83196745099109   17.41962665311694
C         3.90549773297082    1.36241801345621   18.02340376473842
C        -0.55054594649257    3.02248483985580   13.42785049159372
H        -0.71671928193885    2.79478825306494   12.38546043220239
N         1.79257224861616    2.27168441851568   16.23686501814968
C         0.75984991521057    2.74200473724272   15.41856443019195
C        -0.04054081215281    4.66695372021267   19.41150456969742
C        -1.22126621812712    4.17441515667242   15.42664033033111
H        -1.88164638284473    4.83280288425058   15.96847271013587
C        -0.13491854830356    3.61243528828887   16.08612438957820
C         0.53596831661568    2.45579863160795   14.07653241908207
H         1.19324489899877    1.80026515624822   13.52652534070684
N        -0.53660675364664    4.59217733923211   18.13980673439465
C         1.15007315550768    3.90034348682203   19.65505963870168
C         2.71567851703706    1.44968035081082   15.82889584286227
C        -0.65241563728919    5.43626519130015   20.40278618517665
H        -1.54622766799459    5.99275543442333   20.16593007030611
C        -0.09407184787563    5.46238069571861   21.66351404056234
H        -0.55031325357987    6.05038543124445   22.44637969600262
C         4.70670444915299    0.08350166124570   16.08155601065674
H         4.58196144789658   -0.19915474127761   15.04466970284934
C         5.89872886415582   -0.03734241606946   18.14834172182988
H         6.72553709172501   -0.43020642084521   18.72261664225492
C        -1.42305822731123    3.87278897743239   14.09152669416894
H        -2.26137045188335    4.30085990038387   13.56395979363982
C         5.75130060495889   -0.41580969199092   16.80669242353679
H         6.45908689582913   -1.09456839251016   16.35628403891142
C         5.01020961715157    0.81915648239008   18.73421056904612
H         5.11641561774993    1.11475858809684   19.76715772033207
C         1.05718107414583    4.73098759706624   21.92777967982488
H         1.48618261265671    4.75917394466190   22.91972363899371
C         1.66931678084950    3.96275309511327   20.94156899894226
H         2.56435803437678    3.40608229882324   21.18300695514037

