61
CSD_code = JIMYIN | q = 0 | S = 0 | Stoichiometry = C30H24Cl2N4Pt | MND = 4
Pt        4.82581181364437    1.84575415106263    2.18700938189167
Cl        4.87945517330322    1.36156946571151   -0.03481262943070
Cl        7.00464529060100    2.49305070398221    2.27583016611557
N         4.80835237033463    2.14419735191790    4.18828128858503
N         5.37179071967799    3.24898122001451    4.66466225396215
N         2.85466853072061    1.40302764117480    2.08585058177600
N         2.48576343269678    0.31146006639929    1.42468618899538
C         4.11430737838465    1.58347010764821    5.17992100922817
C         4.24604189697172    2.38014127994451    6.32532770060518
C         5.07049966409615    3.43836221272835    5.96704335629091
C         1.79572728374012    1.84005638234901    2.76919976564357
C         0.71907756135097    0.97593259313113    2.52811552032167
C         1.18942491530813    0.00869579833429    1.64991018070038
C         2.21632927419866    0.07810743694398    5.70915483987684
C         1.49806304150871   -1.07977992634968    5.47578482661336
C         1.94104538377134   -1.99960138702582    4.53980702989346
C         3.12354841909168   -1.76972562949768    3.85547563153004
C         3.84663326392697   -0.61398653576439    4.08346125115854
C         3.38525804526905    0.33502223206416    4.99692436218090
C         5.36833036378745    4.60934241248006    8.12016351296681
C         5.76519071458187    5.71279051152293    8.85028919794347
C         6.31125795447811    6.81326433925901    8.21009006172437
C         6.45933678330878    6.80278458795011    6.83265970976044
C         6.06482912000799    5.70205410175800    6.09676247007272
C         5.51267081127848    4.58868021443833    6.73254997889795
C         1.08340365968133    3.16286608577387    4.74241331100280
C         1.20353698813918    4.27924692626759    5.54890759456825
C         2.08532128899214    5.29273521793759    5.21174329281018
C         2.82901035730755    5.19835136542500    4.04663048678868
C         2.71452918404276    4.08474445516023    3.23585951938131
C         1.85660364809686    3.04246467687851    3.59037446216134
C        -0.85612956295079   -1.28641232886128    1.16500286582299
C        -1.48412599981116   -2.40730639150904    0.65760795653450
C        -0.74042949657949   -3.41816923940079    0.07095148796904
C         0.63776366016616   -3.30018658727810   -0.00655889760576
C         1.27178270908845   -2.18137785313721    0.49845065645308
C         0.53127860804294   -1.15790330719259    1.09250387921021
H         6.07410302719615    3.68945412277790    4.07050664143944
H         3.13980342347882   -0.03454950957733    0.72300201245420
H         3.80439344129960    2.19391653452063    7.28152071160304
H        -0.26604935168431    1.06104035108998    2.93595609277031
H         1.86536207030473    0.80073088467813    6.43005767045441
H         0.58541512964766   -1.26493259127921    6.02291767154241
H         1.37105025095182   -2.89633194450598    4.34841316211543
H         3.48328124491668   -2.49742990177080    3.14356395499665
H         4.78606160731145   -0.44736158189923    3.56560859550344
H         4.95266928351339    3.75172968479860    8.62553087899679
H         5.65002181029399    5.71478276408676    9.92403272441432
H         6.62064945482075    7.67500503397634    8.78196005462426
H         6.88418443250011    7.65838233011709    6.32928249370976
H         6.17721192005298    5.71244851378756    5.02345568320442
H         0.40508795769023    2.36731754535682    5.01086614640715
H         0.61027227760995    4.35847473758349    6.44796960623246
H         2.18849293421187    6.15696290258062    5.85059217921005
H         3.49849547740588    5.99874425215039    3.76924781746296
H         3.27840170300562    4.02399433623073    2.31021563108579
H        -1.44163370661552   -0.49832619690714    1.61198411901006
H        -2.55891020562350   -2.49313819557836    0.71809212866363
H        -1.23255245156514   -4.29374049955679   -0.32470558488510
H         1.22164741067207   -4.08566797196734   -0.46267209881890
H         2.34693660831796   -2.10820995295616    0.43986745534668

