81
CSD_code = JINGIX | q = 0 | S = 0 | Stoichiometry = C29H36AuF6N3O4S2 | MND = 2
Au       11.55769997315662    2.31804874169027    7.08075020264832
S        10.36831998324942    4.06616041135908    9.43547059048012
S         8.93910452543576    1.94957797142148    8.69819656321001
F        11.74268531090411    1.91224485152666   10.28918952651015
F        12.41652611012048    3.77913991287994   11.09150360273902
F        10.63340228136396    2.88706259575342   11.87088739825022
F         7.57777723903819    4.01792635358967    7.70575399367587
F         6.73277548113976    3.24845561573331    9.54268216318873
F         6.49366780170706    2.16836671809366    7.70806326180772
O        11.31839071477813    5.02326736553438    8.97294701258066
O         9.15388298694254    4.50775940598474   10.02246553779378
O         9.01619442104722    1.62691805430321   10.08109184728289
O         8.91265343851246    0.88585700796366    7.74632978683923
N        14.28598591419894    1.43346837207663    6.49652109395292
N        13.10120914659954    1.30488039386413    4.71902477591422
N        10.07811927991659    2.99699347949300    8.28218178376823
C        13.05342836696163    1.65009555186042    6.01315101894213
C        15.10770300177797    0.95596541124502    5.51388019594115
H        16.13482806596180    0.71531984510417    5.69342070831069
C        14.35705579837420    0.87294306760307    4.38743876629043
H        14.60619964140945    0.55144056543069    3.39769222999451
C        14.62203555801920    1.66875891022113    7.86049483673439
C        14.98757169787507    2.95852725467499    8.25211680326456
C        15.27975171485326    3.16824006456354    9.59241991933557
H        15.56847655661237    4.14999515283001    9.92879199848976
C        15.18416976653409    2.13693581195822   10.50701546949796
H        15.40085947846184    2.32357980986107   11.54761439407314
C        14.80100628326389    0.87368078999795   10.10018141513167
H        14.71391806462792    0.08385787079699   10.82864801182704
C        14.51357587252603    0.61319270413333    8.76726083079602
C        15.09873825549055    4.08282801728646    7.25026951480637
H        14.58391392214907    3.79050111265947    6.32944167012938
C        14.44136589258703    5.36871888938711    7.75238490822098
H        13.42484267169333    5.18368953623169    8.09182505230319
H        14.40766898107772    6.09738122673877    6.94571263820790
H        15.00503293905314    5.80481374735225    8.57204865254193
C        16.57637222888444    4.32313083470590    6.91874643753814
H        17.12397299405121    4.60658311736685    7.81407749400481
H        16.67113865134865    5.12311595140665    6.18844694579222
H        17.03342550953653    3.42453657602785    6.50829993976816
C        14.06159058747633   -0.76096100944912    8.33232500757623
H        14.04328751474299   -0.80623195192392    7.23833546052488
C        12.64086029087656   -1.02263416882257    8.84093458598625
H        12.60676028115310   -0.97040181027836    9.92517143221289
H        12.30977809498991   -2.01047008108080    8.52913210915060
H        11.94495324000974   -0.28243345599823    8.44848155193096
C        15.02285892688051   -1.84860925538138    8.81875629395766
H        16.04318851976168   -1.62226257442494    8.51593329906591
H        14.74097148962962   -2.80836755196116    8.39208071601471
H        14.99745947856955   -1.94057421951529    9.90040538289698
C        11.97956556609313    1.37501556698773    3.84585941903715
C        11.10573558560123    0.28841251565890    3.78479431016941
C        10.01734102974039    0.38243246151445    2.92763946543028
H         9.32800673870771   -0.44274369436981    2.84962491144993
C         9.79979072084417    1.52435258697774    2.18153534389770
H         8.94336497908142    1.58280310912306    1.52692010218683
C        10.66795952039972    2.59566682628638    2.27320082566800
H        10.47661173742549    3.48528676320210    1.69489131102242
C        11.77834139689823    2.54046427094677    3.10441605321497
C        11.33497142028466   -0.96271315436678    4.59778469737676
H        12.16704501397623   -0.79582282969716    5.28840132587048
C        11.71359134978151   -2.12256154945103    3.67010375319585
H        10.90421927970038   -2.34104790107153    2.97852292148989
H        11.91630372924023   -3.01674420908024    4.25445867511910
H        12.60242110067719   -1.87970343417598    3.09047573972502
C        10.10629692954355   -1.31589765932980    5.43775993786384
H         9.81584477296643   -0.48648478625425    6.07877254842180
H        10.33113203247975   -2.17240571480808    6.06875601725975
H         9.26161766684206   -1.57594566366890    4.80632127743866
C        12.71038742062858    3.72286724196771    3.22857086952142
H        13.60908178330827    3.41653306743413    3.77355531548316
C        13.15760296232505    4.23932594462005    1.85912354244749
H        13.57080394747642    3.43034620287014    1.26038102850811
H        13.92285311323681    5.00157711968360    1.98472841500374
H        12.32871681227423    4.68191600085704    1.31462090185154
C        12.02449415578225    4.83121139021735    4.03306410662579
H        11.12646391505371    5.17110689476763    3.52419651125252
H        12.69634670491367    5.67786436604355    4.15072596049738
H        11.74435541392987    4.47003185644869    5.02203198089835
C        11.31750483022128    3.08954661396447   10.76122309170203
C         7.34147342513697    2.91889680481714    8.41894480864106

