104
CSD_code = JINHOE | q = 0 | S = 0 | Stoichiometry = C44H55ClOP2Ru | MND = 8
Ru       12.21395174654412    3.34175555592654   10.08460285339476
Cl       11.22403762183015    3.30919755622360    7.90373159258349
P        10.00139527808789    3.31430224923082   10.76904678920743
P        11.55544062514927    1.11893001733516   10.12884885989683
O        13.00197188956708    5.09903780903383   12.80670338790711
C        14.09641214645090    3.49313687800843   11.27429411084094
H        14.54489376408501    2.85794716798976   12.02199432863130
C        13.34149587361254    4.64468040131608   11.56244149589916
C        13.13306942370585    5.38710991120624   10.34086526563712
C        13.87922506803360    4.69660377391547    9.30581745521247
C        14.41295568566369    3.48101586985627    9.87106515232878
C        12.99624397154392    4.14510226263793   13.84212298109935
H        12.40971310152871    3.26412894740778   13.55659705296448
H        12.52470984959376    4.62793272488983   14.69701499830768
H        14.01277196923760    3.84017708076145   14.11484395772782
C        12.45463917874679    6.75401445733480   10.43761988390279
C        11.11914418451050    6.61250541586564   11.18613779576595
H        10.62040658551437    7.57878668724753   11.24067849870322
H        11.26853386216081    6.24787160218573   12.19687795890711
H        10.46743442317216    5.91840174006742   10.65382383398263
C        13.36335606704021    7.68779618070346   11.25525831497364
H        14.33813626943813    7.79805307001832   10.78718017857423
H        13.50680601722835    7.29177140599030   12.25622827056024
H        12.90560104324420    8.67206785832632   11.33385002703514
C        12.12981805550156    7.42212007262452    9.10194098198007
H        11.51856776738071    6.77342750166340    8.47872418991318
H        13.03227657051185    7.69687398461062    8.56972086772810
H        11.56387204050712    8.33420160504360    9.28824031898463
C        13.96330368527383    5.11916136789823    7.85209748846250
H        13.05128072666268    5.66422380046681    7.62101999074390
H        13.92613220572549    4.22276203560631    7.23481968652286
C        15.16770735876726    5.98708668118642    7.36677741567238
C        15.88386533858917    6.67645157749508    8.52785332188495
H        16.78543141183222    7.17369491266520    8.17343093058776
H        16.16442107778428    5.95917628047035    9.29612707951589
H        15.24447219206721    7.42726583595123    8.98213845945913
C        14.64891948714340    7.04546392055909    6.38218016786598
H        15.48074784417452    7.61476394863628    5.97079163559660
H        13.96838802765151    7.74888459450000    6.85300792811302
H        14.12372199402959    6.56561176247518    5.55919303190422
C        16.18460099368131    5.15556430117960    6.57471730061731
H        15.69898632111641    4.65146585824007    5.74116021484136
H        16.67959731748267    4.41468640743412    7.19160965182875
H        16.95466795937270    5.80855896827435    6.16591350540018
C        15.34248408560375    2.39926277705036    9.32679134731037
C        15.19549291009372    1.10843820139281   10.15076253170877
H        15.56199022987393    1.21971481538520   11.16803802781580
H        15.77077347247412    0.31124626724512    9.68430680882598
H        14.14839165693810    0.80281842712689   10.17931021694529
C        15.01572711184006    2.00923273188148    7.87998529446164
H        15.50831194812801    1.07168759160422    7.62760991180154
H        15.34590287660025    2.75400340278359    7.16806596760372
H        13.94009204122899    1.86235821236482    7.77193801166295
C        16.79814518061637    2.86740584436839    9.47710920820687
H        17.05277213924571    2.96480754845630   10.53146707616932
H        16.95833054924350    3.83329058591142    9.00989368504838
H        17.47316751717703    2.14350598110795    9.02484056765290
C         8.49817915816038    4.05523549447488   10.03397060087076
C         7.25238230079158    3.64779074556720   10.50542788236397
H         7.19452597553547    2.93212101067745   11.31536363267918
C         6.09914669990753    4.16260289854144    9.94623485227157
H         5.13410283632328    3.84566750298097   10.31515573726709
C         6.17944072167011    5.08295388093942    8.91202314414039
H         5.27544303206382    5.48381696408432    8.47710146018816
C         7.41562764263932    5.47999481680460    8.43290991494200
H         7.47958535153274    6.18801479964575    7.61985820918170
C         8.57418549289974    4.96696099731427    8.99052675025834
H         9.54064268367441    5.25044630832326    8.60040594671741
C         9.55684935191627    3.39227794557825   12.53552277193035
C         9.88962121059373    2.35485406475004   13.39998017673182
H        10.34628484101678    1.45604733289302   13.00961090226651
C         9.64374037369545    2.46561204817852   14.75602179215787
H         9.89840776428792    1.64736626345288   15.41458136379869
C         9.07750739866951    3.62209889108250   15.26683666702414
H         8.88881133541017    3.71020594217708   16.32667245597724
C         8.75587862119039    4.66528856982984   14.41382879496064
H         8.31741220898717    5.57031965879451   14.80879829959583
C         8.99514264813163    4.55458702353899   13.05670263784295
H         8.73674747529548    5.36725010652744   12.39268168942505
C         9.73679337249118    1.51789490262743   10.30738857681760
H         9.18340171540847    0.90607938565201   11.02437507883373
H         9.24200189532224    1.49574425398870    9.33010221326646
C        11.74838126108887   -0.04040655312910   11.53360132136740
C        10.97530998874785   -1.19724050196164   11.58082137240343
H        10.30919238574172   -1.42614189929291   10.75934353906358
C        11.06695850483973   -2.04777168520538   12.66581556338615
H        10.46567212029674   -2.94471805772026   12.69846492346332
C        11.92798688505317   -1.75236215754765   13.71221299818954
H        11.99662062468951   -2.41946905257556   14.55875580282386
C        12.69784850170341   -0.60267068771894   13.67140327803166
H        13.36731721248112   -0.36879774866389   14.48663951991121
C        12.60603613871953    0.24961695888888   12.58476073587967
H        13.18886914750366    1.15828094004555   12.54571949364393
C        11.66229733512512   -0.08343678798662    8.75399729638458
C        12.57564074096227   -1.13400823186250    8.83109544654927
H        13.15631274652653   -1.27981439934574    9.73216365803125
C        12.73559008622524   -2.00160165448614    7.76764897074877
H        13.44289197196376   -2.81524831871609    7.84182185338365
C        11.99508440426159   -1.82696658535628    6.61002435615034
H        12.12289902451752   -2.50450010428570    5.77848212450347
C        11.09744128720564   -0.77667210278278    6.52092402202212
H        10.52514039065905   -0.62897496121667    5.61690126880938
C        10.93314006044350    0.09544267010867    7.58194525741033
H        10.25960133366002    0.93328468559719    7.48394777987277

