66
CSD_code = JINJAU | q = 1 | S = 0 | Stoichiometry = C31H31ClNPRh(1+) | MND = 8
Rh        2.27783426042660    4.39544961078181    6.98757184314794
Cl        2.39484202464808    6.66092876552977    7.53841166179515
P         3.27862735830395    4.93816701537282    5.02840516568301
N         0.58046672718712    5.10583702496590    5.97201648048773
C        -0.60358921975375    5.03951546644083    6.54428709700624
H        -0.69794496054117    4.41573528942583    7.42309421008344
C        -1.72209950233725    5.74223875152000    6.08111774604662
H        -2.66172316365378    5.63525006918505    6.59840136293353
C        -1.59325023557167    6.56710935667616    4.99608338541098
H        -2.42744785844518    7.14179352137142    4.62374559759459
C        -0.33656176162939    6.67802351556957    4.36836082854030
C        -0.09851900654503    7.53347839620767    3.27181172844055
H        -0.92058134416942    8.11680185295793    2.88635884813935
C         1.15049059126661    7.63380388969968    2.72323223659113
H         1.32964215729485    8.30366428562597    1.89697864956989
C         2.21234047602190    6.86764835051411    3.22550006536408
H         3.19273154599015    6.96699620307066    2.78542949053928
C         2.01260712020094    6.00883925907915    4.27805004202550
C         0.73938666739557    5.91037102641842    4.88667605375564
C         1.42502647387356    2.63026377508428    8.16498379043494
C         1.97858353138556    3.59212324935973    9.05170763848059
C         3.38285964646827    3.72899787078849    8.73186729223796
C         3.67805621288238    2.85651932358957    7.63873053978532
C         2.44955577406307    2.21554806773909    7.24572212545895
C         2.31790681967600    1.08285967948238    6.28014198754546
H         2.46524668115214    0.14014283877590    6.80977211290752
H         3.05844927014978    1.14627833751974    5.48661865328179
H         1.32958365523428    1.06324098448730    5.82637665757708
C         0.07076505392302    2.00731209599312    8.24256328488620
H         0.17863763543563    1.00297936170897    8.65605899847406
H        -0.38815067474786    1.90819976243815    7.25975894317878
H        -0.59653700548800    2.56450715907519    8.89573575560680
C         1.33696165160846    4.21288753174435   10.24882516291449
H         1.72643144817182    3.74136266081190   11.15224460630111
H         0.25678708894638    4.09276619784492   10.23763713741822
H         1.56750511322836    5.27581259569199   10.30029659765101
C         4.36613430849404    4.47783702587938    9.56795141421693
H         4.47212461980060    3.97070236855498   10.52815549562639
H         4.02184797122474    5.49242378771526    9.76282720223944
H         5.34159879593774    4.52070737467194    9.09090169090972
C         5.04558027366266    2.51007086183873    7.14579862251880
H         5.49984437122099    1.80482132379136    7.84381733816056
H         5.68637430545347    3.38799624279233    7.08715905758034
H         5.00377651573334    2.03938600396485    6.16692019787828
C         3.42315457795438    3.57697568773839    3.83182949221533
C         2.27106048932390    3.08070725332384    3.22611485306199
H         1.31777054716916    3.55549704046080    3.41867416461372
C         2.34800672417056    1.99193085177375    2.37778388536332
H         1.45518590668067    1.61735318131385    1.90066536925264
C         3.56969034152748    1.38051103724549    2.14070008700042
H         3.62793047962833    0.53059688291485    1.47880307902375
C         4.71571093939683    1.85989765583341    2.75494515548574
H         5.66682361984979    1.38262852364934    2.57365099477264
C         4.64593191343210    2.95118547134404    3.60281148756674
H         5.54095349117762    3.32861065945310    4.07736756928892
C         4.84691095399172    5.83370746032498    4.90967691042795
C         5.47169566453081    6.01185097626488    3.67528515965023
H         5.04254289769437    5.58274036472311    2.77993630143241
C         6.65536638783414    6.72247486790387    3.60477488046941
H         7.13731921973762    6.86520066918832    2.64938860029327
C         7.22471599853719    7.24707321373182    4.75545432938329
H         8.14851355716071    7.80114288057710    4.69233097280818
C         6.61235781057063    7.05740479141183    5.98338311407649
H         7.05797638235379    7.46294445312836    6.87882601481158
C         5.42488234313257    6.35147935714406    6.06401599537869
H         4.92899834056536    6.21248858892709    7.01427678724314

