107
CSD_code = JINJEW | q = 0 | S = 0 | Stoichiometry = C45H58OP2Ru | MND = 8
Ru       -3.36430977378218   -0.06963085565031   -4.32304776235222
H        -3.57908941398246   -0.51992276403364   -2.86169387999643
P        -3.36808352364765   -2.27325066958466   -4.77368369985262
P        -5.61218269661838   -0.31342994430779   -4.38474892746921
O        -1.44234409193666    0.35938871368898   -7.10401720342245
C        -1.22035703753076    0.39596235824237   -4.62577935402502
H        -0.34655543430635   -0.23461687777857   -4.55506804847047
C        -1.84852784976406    0.75231983392529   -5.84725046846830
C        -2.80698715029555    1.77062485745328   -5.60065832399901
C        -2.72626489180964    2.09120344316936   -4.17069278281796
C        -1.71651416957805    1.23466923109997   -3.58730492315929
C        -0.44590494600516   -0.62751117594573   -7.16030214327507
H         0.51248165860799   -0.25551585780753   -6.77893211132085
H        -0.33782705690358   -0.88748404452911   -8.21291883410085
H        -0.73701872232478   -1.52131650740201   -6.59625974700148
C        -3.48841799074033    2.44169035807586   -6.79531475855875
C        -2.42948313936726    3.22403159667871   -7.59132554094773
H        -1.95668441155295    3.99199901376250   -6.98740632433208
H        -2.89663902023142    3.69976861951773   -8.45192912430599
H        -1.65697177742153    2.54869141374133   -7.94881778384339
C        -4.07185383913574    1.37778770125773   -7.73919611902208
H        -3.28089358202977    0.81589839820214   -8.22454186067427
H        -4.67022866195097    1.85436976690160   -8.51422508130049
H        -4.71458234328126    0.69547897835096   -7.18810543692464
C        -4.63927886352242    3.37467699947535   -6.42508667022312
H        -5.37113027176932    2.85067242387439   -5.81329625246594
H        -5.13979238056054    3.71118035067121   -7.33232142157728
H        -4.28104152901992    4.25088926736097   -5.89980398332018
C        -3.48729627076328    3.19554359657538   -3.44810093458453
H        -3.66438265320271    2.86054617851518   -2.42741119371141
H        -4.47100636426003    3.26554629520690   -3.91014745776238
C        -2.91345442779131    4.64927501342003   -3.34416867196363
C        -1.83936048370705    4.94031542975674   -4.39166627792837
H        -1.28904774210346    5.84245704604067   -4.12907022075436
H        -2.28787475194816    5.10102347419631   -5.36704285067122
H        -1.13415318468545    4.11529595681555   -4.46563482908736
C        -4.07376519176894    5.64395087024874   -3.50314044563752
H        -3.71068164473993    6.66406046699245   -3.39035335431700
H        -4.82934978828422    5.46463981228445   -2.74049311313123
H        -4.55330645525507    5.56908505674032   -4.47514845897270
C        -2.32546893590946    4.93185481742445   -1.95476892923187
H        -1.42565209856593    4.35715862207433   -1.76737604052627
H        -3.05372971260542    4.71681329923827   -1.17437359108425
H        -2.06179500806679    5.98598078230982   -1.87739063222832
C        -1.01130242665117    1.19191576580604   -2.23130676144704
C        -1.90536351703139    1.53019930473904   -1.03478152628458
H        -2.23281562528033    2.56020407296183   -1.03736842316326
H        -1.35439660609524    1.36216925902708   -0.11057768759542
H        -2.77470452663497    0.87517712557635   -1.03662779322323
C        -0.46593481253706   -0.22234121383539   -1.95562950031710
H        -0.09867234800890   -0.27865940261780   -0.93283724672745
H         0.36244704379337   -0.48344966882061   -2.60918289363531
H        -1.25425802191916   -0.96191645345393   -2.08064615933686
C         0.19258633376017    2.14580263817388   -2.30563496374112
H        -0.11038266246233    3.15348492170647   -2.57311725572989
H         0.89775606580489    1.80137454383419   -3.06052349960819
H         0.70547588429966    2.17829159677080   -1.34626514339007
C        -3.18437734129476   -3.10619513952089   -6.40034394848832
C        -3.05281510650307   -4.48954310888786   -6.49348157646275
H        -2.99760800565738   -5.08347626935709   -5.59074441252282
C        -2.98822277307466   -5.09493314168887   -7.73388115168382
H        -2.88002357705921   -6.16803168398166   -7.80343414842979
C        -3.06528517177961   -4.33047837438196   -8.88896095332421
H        -3.01437244788750   -4.80994824810012   -9.85585907888240
C        -3.21232050316303   -2.95704672579572   -8.80117069879229
H        -3.28212218448736   -2.35884778684187   -9.69837654609686
C        -3.27346339674971   -2.34885542608608   -7.55934759101569
H        -3.39417617887769   -1.27886900720431   -7.47527332742097
C        -2.14420650749871   -3.21012332034315   -3.79271255667723
C        -2.35805093838246   -3.35722396732001   -2.42417578927223
H        -3.27920727795293   -2.98618241401909   -1.99378611225860
C        -1.39810930166186   -3.94274222050438   -1.62178240116031
H        -1.57873101674238   -4.06044695596298   -0.56295849314939
C        -0.19842378241372   -4.36733272543366   -2.17139102516714
H         0.55495483027784   -4.82082294675819   -1.54419311671132
C         0.03586632313130   -4.19789408442969   -3.52532458635918
H         0.97474582268269   -4.51643535892409   -3.95601503821886
C        -0.92832382267563   -3.61968853100434   -4.33152128593358
H        -0.73954178604817   -3.49824164895967   -5.39067596526586
C        -4.98430065332043   -3.08805245225686   -4.27357971204581
H        -5.35872200660729   -3.63030173351096   -5.14727274305029
H        -4.78539360996522   -3.82457438366143   -3.49009371991521
C        -5.99997387226003   -2.05313525826416   -3.80533245894567
H        -5.97438836164088   -1.96936474563143   -2.71305001606122
H        -7.01823722095866   -2.31877131451334   -4.10663316715727
C        -6.74538959695135    0.51339529707460   -3.20495354851812
C        -8.12941205970797    0.37552613651145   -3.26568398088322
H        -8.58220333934527   -0.19243483906649   -4.06680525813149
C        -8.92596824215059    0.96995744629851   -2.30452530668546
H       -10.00007227426803    0.86194316383548   -2.35605446932309
C        -8.35331662063408    1.70065648390320   -1.27499420849495
H        -8.98216356744683    2.16576627387516   -0.52973000499651
C        -6.97640372580905    1.82548310062270   -1.19956296510528
H        -6.52685031754242    2.38412904894618   -0.39111362764242
C        -6.17909873189421    1.22905918240650   -2.15979698953390
H        -5.10014910079634    1.28715737366265   -2.11566201653029
C        -6.61678362875447   -0.20786415074870   -5.91370045418003
C        -6.52866488217478   -1.22591312805611   -6.85872245632548
H        -5.91905027102020   -2.09360318272010   -6.64709343311497
C        -7.19038809794192   -1.12270295736889   -8.06744036287617
H        -7.11709184290091   -1.92267987692210   -8.79039540018777
C        -7.93772590067570    0.00836306367809   -8.35414280321193
H        -8.45189908437817    0.09240241665476   -9.30042158119132
C        -8.01618265895489    1.03518248875873   -7.42774491343824
H        -8.59108273854063    1.92252160259205   -7.65137828761624
C        -7.35697797679984    0.93147152528190   -6.21681522486540
H        -7.42222262965434    1.73411866800373   -5.49447666365559

