54
CSD_code = JINKEW | q = 0 | S = 0 | Stoichiometry = C28H21MoO3P | MND = 9
Mo        2.01045537041645    2.49437877784068    1.22733611707815
P         2.91167399176561    3.65994238634404    3.05156433710046
O         3.58267302582541   -0.12403090316192    1.58581577695886
O         4.85638036523071    3.23792408994896    0.31035522904386
O         0.55052664531676    0.53936397883099    2.75280499897552
C         2.98994881956568    0.85169728073748    1.43920033373529
C         3.79156111494487    2.98311246800240    0.66089302939371
C         1.38589374340289    1.37390422068247    2.98151601801510
C         1.84422294561247    1.66016447690166    4.38216816121930
C         2.51214329161746    2.80587016771296    4.57262008325862
C         1.53064657772329    0.71145421208225    5.45414054479539
C         2.52473878070495    0.37022219696896    6.37215828709655
C         2.26312206981030   -0.53520595884896    7.38170915250396
C         1.00636346315924   -1.10833246954868    7.49377452350569
C         0.01445544995132   -0.77345535593375    6.58783963770269
C         0.27101736674917    0.12803274231336    5.57104381170842
C         2.26340322140127    5.33673732452952    3.23148240984371
C         1.36803206969303    5.70088891591079    4.22912943016902
C         0.83686189674246    6.98001794152043    4.23926610856799
C         1.19202586774804    7.89072673076910    3.25833289004630
C         2.07565208268885    7.52461093053127    2.25262688037967
C         2.60415566402583    6.24886686836884    2.23344960428087
C         4.69686318191546    3.86811963272907    3.34289051189561
C         5.44467742818210    2.69126255662471    3.31776092538046
C         6.80626632598248    2.72929060451579    3.54388953283335
C         7.43101383269217    3.94145724860561    3.79781822317479
C         6.68946742910447    5.10934530822549    3.83491377203908
C         5.32249503749797    5.07834782741601    3.61314494158133
C         1.07569458903775    3.84428329664537   -0.43044980108366
C         0.96018658190986    2.48676991628237   -0.82659504608259
C         0.09533341801770    1.84514328159344    0.09071463717211
C        -0.30047259289239    2.79705526215134    1.05265572265617
C         0.31134977378418    4.02930152353022    0.73365591888734
H         2.88053718669696    3.14778549700764    5.53273547044595
H         3.50993765566138    0.80277763025149    6.26995649493446
H         3.04216551212844   -0.79761213171277    8.08247933141472
H         0.80324286208739   -1.81666922890806    8.28330073746924
H        -0.96600649665198   -1.21865609200048    6.67156181060087
H        -0.50521826611150    0.38593723913848    4.86853208571726
H         1.08647209368555    4.98280089415249    4.98726427444506
H         0.14088165490316    7.26588715781937    5.01443349131329
H         0.77503633537936    8.88682850613487    3.27145408365795
H         2.34411661654767    8.23459835713434    1.48395947943494
H         3.28433199726354    5.93608497007143    1.44862443260508
H         4.94239709819469    1.75122402040893    3.11111511123106
H         7.38284625405723    1.81673092017978    3.51809239133913
H         8.49701933171690    3.97365812340872    3.96699069242912
H         7.17564146588122    6.05271605263029    4.03656448895792
H         4.74895066932630    5.99375573979519    3.64795167162242
H         1.56220283868771    4.62693974139260   -1.00052642158740
H         1.30098530057547    2.07599138022580   -1.76924729480154
H        -0.30798853899156    0.84618649669942   -0.00963329011868
H        -1.05986969257868    2.64940692505477    1.81109851668797
H         0.09418929220974    4.98036032029199    1.20486573837586

