42
CSD_code = JINMUR | q = 0 | S = 0 | Stoichiometry = C19H12Cl3F2N2O3Re | MND = 6
Re       -5.15755068445856   -2.46763943970558   16.40757664581259
Cl       -3.46288774359377   -3.26671649966717   14.95382462543266
C        -2.54276869302085   -0.02268395185031   17.21582221745208
N        -4.49253334140700   -0.43393913030891   15.81789589803740
O        -3.56964593919560   -2.73963699312725   19.04627125145814
F         0.38333272545241   -0.85928778994106   19.96842691435481
Cl        0.07925533953581   -2.95542598403609   17.90679793172497
O        -5.75781510683672   -5.47872471039262   16.70248863107266
F        -9.57624191844424   -7.46447585666412   15.56389344634288
C        -1.81751696342918   -1.20811604865650   17.11440159268124
H        -2.00893921448609   -1.89876599756792   16.30468455730689
N        -6.14173048954393   -2.19313815428057   14.41377375382490
Cl       -8.22229398589133   -7.89896870592719   12.98279043543449
O        -7.53267051640258   -1.25964741292253   17.97170695618257
C        -0.82287221658397   -1.49761101206155   18.03478738870513
C        -0.57022351365026   -0.59666370202015   19.06542028977192
C        -1.27992251738227    0.58789948502209   19.16970167342789
H        -1.05378631835644    1.26380185513259   19.97904010350214
C        -2.25190352928086    0.88398109769813   18.23569387528534
H        -2.80712784829426    1.80640130128274   18.31243273417789
C        -3.55533222157598    0.32141030685536   16.22285427460820
H        -3.47165650851166    1.33699433040530   15.81962818935112
C        -5.34960798765438    0.06165940229502   14.76186686772859
H        -4.92835724647634    0.95107089302534   14.27589074675257
H        -6.32527747701111    0.32183125823058   15.19298106133226
C        -5.53145203085598   -1.06541668813283   13.74429091994618
H        -6.12732749440356   -0.72780743069771   12.88808453833577
H        -4.53964845105328   -1.37597036067351   13.38714578678719
C        -6.83659011059500   -2.99258919645357   13.71205836572148
H        -6.92075004938279   -2.83530447074320   12.63213842495118
C        -7.55204779376123   -4.15505019128138   14.22333014502297
C        -7.56420361464501   -5.32150544543003   13.45895016111890
H        -7.02926425996731   -5.36533704412315   12.52274765284294
C        -8.22823515560325   -6.44830638917429   13.91063094346069
C        -8.91295442405873   -6.38917135399416   15.12295283008256
C        -8.93631733535479   -5.22696466422653   15.87374848542795
H        -9.48566692440111   -5.21243088574671   16.80128144002443
C        -8.25115591013710   -4.11247443344809   15.43039661109345
H        -8.27793050346069   -3.20060131268763   16.00633173685792
C        -4.13093487647485   -2.61115290976187   18.05517989724668
C        -5.62590769556074   -4.34468091450807   16.63047044691178
C        -6.64293945378908   -1.72274484975968   17.40550955240284

