70
CSD_code = JINMOJ | q = 0 | S = 0 | Stoichiometry = C28H39N2Sc | MND = 9
Sc        7.78947457437428    7.02715551568819   13.53432385941343
N         9.04625707685451    4.66496953710313   14.02548649395517
N         6.56472506870476    8.47441962485356   15.32739252048016
C         6.32388079776316    5.43366607846874   14.08066486597957
H         5.25950671763979    5.61983784172453   14.27192971777615
H         6.39782651234461    4.78821350134516   13.19508028901912
C         6.93782737386363    4.80434453447509   15.24868012547418
C         6.21702891887831    4.58526828218621   16.43117613418098
H         5.16677460955982    4.84833901023727   16.45481255780386
C         6.80015832279772    4.03393079055378   17.55360112506846
H         6.21267599530618    3.88121464880038   18.44763981180741
C         8.13273423910982    3.66312544568429   17.52707399980497
H         8.59847798644256    3.22248002312303   18.39562730544317
C         8.87136084936491    3.85168716664083   16.36791103608472
H         9.90828183263676    3.55044752864345   16.36385115940929
C         8.29951783143093    4.41799839270641   15.24258973766549
C         8.87520275677172    3.52217657187305   13.12489781035620
H         7.82100539595455    3.32646472844295   12.94717272589939
H         9.32133331099881    2.61255934323171   13.55289035085271
H         9.36587427160189    3.73002316967820   12.17499550754192
C        10.48196089963211    4.84573760891692   14.24447427359989
H        10.99553996941339    3.89715090693228   14.45409153548396
H        10.65159344335145    5.52574497017020   15.07530165228913
H        10.92072087488518    5.27040574035852   13.34135390178815
C         9.29484163827478    7.90925402623450   14.89825694444555
H         9.07948648807703    7.32091922010668   15.80319132415275
H        10.37651823746077    7.89127870207387   14.72036834459957
C         8.84414700532716    9.29436735445972   15.05223219309947
C         9.72924180183903   10.37585747753271   14.93930860125879
H        10.77307763982042   10.17287660645026   14.73984053678299
C         9.30646459635768   11.68180415293143   15.08410189737292
H        10.01602150173957   12.49179003159275   14.99261219906936
C         7.97758127691154   11.95341927440289   15.36101221333496
H         7.63973316640497   12.97046083033913   15.49176140685009
C         7.07354452992115   10.90604752785337   15.46492701427003
H         6.03739691488565   11.13527078126856   15.66543508308779
C         7.48410904640025    9.59480829343864   15.29703557336356
C         5.21611762762446    8.81596511222165   14.87289334217908
H         5.27222451304176    9.36497367740757   13.93625739256590
H         4.66540891438491    9.42042475185555   15.60645042286184
H         4.65599273217951    7.89387010141256   14.71355489688310
C         6.47007459580137    7.97865444655702   16.70361869671026
H         6.02613377391749    8.73729205587377   17.36361404810675
H         7.45635730831988    7.72992239551225   17.08812383153310
H         5.85413366403663    7.08242444012927   16.73156646062694
C         8.74914958208073    8.37398640604617   11.69275175430859
C         8.78998805153997    7.01645919975008   11.26182898460858
C         7.45493459241623    6.56550575701788   11.12428633739337
C         6.58371450702236    7.64634024229438   11.47308843646239
C         7.38559853616507    8.76831394341419   11.79670749660543
C         9.91974403049638    9.31518985958886   11.69231944806532
H         9.72809678393691   10.17736164225006   12.32765400372620
H        10.10355917196576    9.67790725310444   10.67694600598070
H        10.82812016556908    8.82339397915880   12.03812116523398
C        10.02292294482602    6.34332626865494   10.72504876246605
H        10.23974326389623    6.71883533987278    9.72143177211271
H         9.89474352580667    5.26551989470036   10.64941613644268
H        10.89568639371074    6.54835581486447   11.34489985700353
C         7.00342192184571    5.31736071926648   10.41701108210709
H         7.73360420245179    4.51538221002776   10.50440597875881
H         6.86952555782061    5.52784258538730    9.35221587347454
H         6.04828300157296    4.96034763523098   10.80050585638982
C         5.09746803916132    7.62788505193170   11.23488783232364
H         4.61244373531786    8.50039190840227   11.66743495864500
H         4.63327946713225    6.73660182373026   11.65881890666159
H         4.89202664974153    7.63015343447662   10.16132453497584
C         6.94209771541381   10.20174579155571   11.90491766087947
H         5.85711324383367   10.28279747495933   11.93119222445134
H         7.28864746202006   10.75384661965799   11.02816742304927
H         7.34894085184767   10.69680692316664   12.78633658753924

