42
CSD_code = JINMEB | q = 0 | S = 0 | Stoichiometry = C19H12BrCl4N2O3Re | MND = 6
C         3.66464575317550    2.50220356338234   10.38012852186170
C         2.87446530610266    1.58670189146704   11.07426297607120
H         2.06427842926274    1.08144781574991   10.57210696263618
C         3.15528975522602    1.31132280306052   12.40171542605234
C         4.19477561468789    1.95293007863329   13.06198254422167
H         4.40008495514471    1.73972862543855   14.09817259100047
C         4.95443025246437    2.88179624670422   12.36814555881562
C         4.70575104067606    3.15987872552040   11.03350148864288
H         5.28916143540895    3.91262879099568   10.52673914434663
C         3.33145658451503    2.78058387036637    8.98117896079018
H         2.27124376973427    2.92074907065498    8.78446785687784
C         5.51650489759412    2.52564258778506    8.09027761523969
H         5.77226116807836    2.08157484142725    9.05798191101172
H         6.10237144182177    3.44133083012431    7.94358970738904
C         5.83708395666334    1.52689392218656    6.97261878243576
H         6.90975100050046    1.29705680837351    6.95792319402547
H         5.28503056114530    0.59808283972131    7.17580546673250
C         6.06500528324397    1.74563321385524    4.66661001538488
H         7.03622009213015    1.25187832399617    4.77245690630671
C         5.63131010237282    2.00002999295041    3.29130284671797
C         4.46485733673238    1.39981508943169    2.82465580115701
H         3.86929946719884    0.77323985568007    3.47157327526192
C         4.08611636231576    1.59113653253838    1.50386412000233
C         4.83946229955338    2.38538963157099    0.65251666483707
H         4.52942012522566    2.54124339191738   -0.36780812844881
C         5.99893710556490    2.97326243944230    1.13552595109861
C         6.41496366541428    2.77451353961743    2.44121169547087
H         7.32107424819232    3.23735757592455    2.79898855513200
C         1.87226352729345    4.15428504461632    6.41580251951497
C         2.98977756645866    3.51511439210090    4.06072659265210
C         4.58100471924836    4.84303082283038    5.88916814399302
Br        2.33651363993907    0.98333338780299    6.08909641592836
Cl        2.19370254263348    0.16766269929797   13.25672366839334
Cl        6.23582137184566    3.70360707382429   13.17777185156000
Cl        2.65343524656966    0.84558752396350    0.92074010946975
Cl        6.94628411715931    3.95776504605313    0.08750237221148
N         4.11207361067283    2.84975574085485    7.97877812876268
N         5.37204468579046    2.01748783343509    5.69396646469267
O         0.88757455780451    4.63977643272902    6.74092016199174
O         2.60767516196517    3.76054687033618    3.00841334464418
O         5.22859743983948    5.78958517199745    5.86350877172937
Re        3.51057980262384    3.22520906164467    5.92108504338335

