79
CSD_code = JINMID | q = 0 | S = 0 | Stoichiometry = C30H45N2ScSi | MND = 9
Sc        6.39026748126699    3.37764984303037    2.98367893997276
Si        5.21558487873489    7.05848513817099    4.01502172437369
N         8.70308668589861    2.46692295215341    1.69357971686310
N         3.98861263973422    2.82725922458557    2.12051361579273
C         6.71861095736825    4.37167433505241    1.01858756366693
H         5.97037569906374    5.02988108965081    0.56241596180110
H         7.60776741652814    4.97638743936283    1.24146768032810
C         7.03537418786662    3.27399586180928    0.10588882907342
C         8.02061892732470    2.30984097703200    0.42651354389321
C         8.28246896464006    1.26224869502232   -0.43873266221997
H         9.03802317241676    0.52904770794074   -0.19878308224446
C         7.58118964646894    1.12514157024382   -1.62778559664197
H         7.79897954211669    0.29964632380485   -2.28852485968814
C         6.61421025955701    2.05723900439088   -1.95996517535597
H         6.06978235426390    1.96575036524714   -2.88893549949954
C         6.35589309117166    3.11315354064979   -1.10992564209100
H         5.61416947229558    3.85077947711516   -1.39020624444637
C         9.85162697617238    3.35698429399062    1.51308687113736
H        10.61172414298504    2.89582824244277    0.86538460040115
H        10.30653632243660    3.56517116021278    2.48068626267796
H         9.54350660551787    4.29197893263241    1.05225025171036
C         9.19583587580625    1.21028250715022    2.25656554792422
H         8.42417754049585    0.44696152119628    2.20074209164804
H         9.45681316303557    1.37707029499996    3.30193027525850
H        10.09429947967573    0.84325556261466    1.74091787851969
C         5.99827673522705    1.20709765412818    3.24472074451008
H         5.98633219807373    0.88370488730369    2.19279792693353
H         6.63677278259833    0.52026170773308    3.81331117080294
C         4.64703005080169    1.20613868702606    3.81373256283897
C         3.62171838910050    2.00717693204732    3.25780040750535
C         2.34966239219130    1.99788081667389    3.80162410541020
H         1.56422373942965    2.60208880659799    3.37272536916697
C         2.05852468410210    1.22430406765483    4.91585932220119
H         1.06139842099719    1.23046216328343    5.32939085045993
C         3.05321866195291    0.44977079905179    5.48755291437556
H         2.83537714837269   -0.15493365760727    6.35645213697216
C         4.32098097192022    0.43880269646394    4.94088249986230
H         5.08725097766444   -0.18312288418248    5.38485029425480
C         3.21872991175979    4.06455285252874    2.00738363669653
H         2.17003464922315    3.88738360699398    1.73218390480857
H         3.66605399607508    4.67929778375943    1.22626882983233
H         3.25435055809749    4.60960781243311    2.94825803359903
C         3.78367151822283    2.04945519125849    0.89455953798575
H         4.29385755064007    1.09180626191104    0.96143381709396
H         4.18286442801735    2.59304124626304    0.04062121330351
H         2.71503293908639    1.85530273996326    0.72769235165631
C         6.05678315215510    5.39863686620336    4.31106747028994
C         5.59693148883130    4.31849540160816    5.13291277038391
C         6.70247488861146    3.50837065207243    5.47796914185749
C         7.87373326099585    4.08528498092245    4.90405299806656
C         7.48812077204142    5.23529184438806    4.19277945797533
C         4.24553619956346    4.19118181774845    5.77688745765420
H         3.99524493086838    3.15051592135377    5.97317145843960
H         3.45771445711150    4.61798750546669    5.16476508296357
H         4.24483123504058    4.71769686201714    6.73442557468659
C         6.71658286297493    2.42022419285060    6.51344692981572
H         6.95772444624434    2.84390241887923    7.49204949892101
H         7.46754396765487    1.66454590761558    6.28529574719064
H         5.74693928612753    1.93359774716307    6.58960774727443
C         9.27358653379937    3.69140020814513    5.28440136379986
H        10.01044784471934    4.15570743820262    4.63304717453934
H         9.41416797091690    2.61064422448296    5.25730662346946
H         9.48262063851407    4.02112803156698    6.30523017664226
C         8.44216126652738    6.26363169188814    3.65151615760286
H         8.79625745176021    6.90014623973434    4.46547628834946
H         7.96161011845655    6.90228564152876    2.91547883988406
H         9.31700373273839    5.80243858681198    3.19402104033064
C         6.16173583842606    8.42995306669228    4.96777568580264
H         5.52505948691781    9.29368742310426    5.13539405714122
H         7.03699688872614    8.77327349594927    4.42693431618180
H         6.49502569759171    8.07607432881506    5.93863730934495
C         5.15769299802798    7.56860123079413    2.16334915884871
H         4.40757639283524    7.00716050648315    1.61491036369931
H         6.10790506923869    7.42305541249195    1.65926417119715
H         4.90202010207347    8.62006192626032    2.07402146569502
C         3.40721772436391    7.22112989800718    4.62045422928296
H         3.06631794667032    8.23825967555264    4.45083236781793
H         3.31602006463977    7.02242756823775    5.68215805452001
H         2.71971709844379    6.56568505517669    4.09578559720653

