48
CSD_code = JINNIG | q = 0 | S = 0 | Stoichiometry = C21H12BrCl2F6N2O3Re | MND = 6
Re        7.19051929293711   17.09954509205356    3.25880292998537
Br        6.03880774466888   16.36561438557402    1.08615161890819
Cl        8.89946816147825   20.44294870602233    4.18789314215426
Cl        8.52787762108064   14.25519970760527    5.50663870259890
N         8.76912786898562   15.66601682455853    2.64323099074026
C         6.21493088911187   20.88347294149112    1.27222548593739
H         6.03787495307433   20.49763512816989    0.27920381353953
C         7.49273033086100   13.39835358784288    4.42440939657297
O         5.16647211710821   15.23952090943416    4.66667467323644
C         6.51629746266252   12.55687417719086    4.93606343408645
H         6.41442907618057   12.44495740926053    6.00316381995412
C         8.18984510175148   17.52116004886149    4.86910289114666
C         6.64200714337032   21.85926111852006    3.84245769159431
H         6.82180989227267   22.23685410174764    4.83599851762391
C         5.54297445104524   22.28163486788421    3.11963482907715
H         4.84750570336275   22.98622663004786    3.54793974169644
C         9.35800638853243   17.44645909630835    1.12910685992084
H        10.18026354751038   18.03274310400493    0.70463735363018
H         8.81597820102613   16.95901547203785    0.30655938601000
O         4.94396342980879   19.17406242623210    3.72224472978004
N         8.42563335126821   18.28559546206596    1.85566023831361
C         5.97920550028953   15.89839159973059    4.19958445337939
C         9.89499593461295   16.36930239118305    2.07163463371417
H        10.56908162109443   15.69314457497199    1.53023238953898
H        10.44639056187059   16.84410941188677    2.89271219623668
C         7.64547898940797   13.56035961891789    3.04630978254102
C         5.81718489665746   18.44664834229697    3.56632056132070
C         7.51667166640258   20.93650723212119    3.29015971635134
C         5.81571093480254   12.04415823209948    2.70132453774958
C         7.30478072213298   20.42646045671671    2.00668795003955
C         8.22031274940655   19.45298261840660    1.40120255729457
H         8.71808694662172   19.78574703159806    0.48632187435214
C         8.70652891066321   14.41005716348869    2.49146454974772
H         9.47138059495926   13.88194627377771    1.91329381109924
C         4.88049064183704   11.29770508913450    1.78768677192458
C         6.80251787087899   12.86634104952762    2.18428187826673
H         6.89752729838839   12.99984614418629    1.11704117007023
C         5.33500845062059   21.79318168249776    1.83516074216103
C         5.67109339914901   11.88442537911084    4.07510482371954
H         4.89976174974404   11.23771270875953    4.46338763965098
O         8.77345339593803   17.70451513154467    5.83849315502430
C         4.16902232929818   22.30728956199349    1.03391784128517
F         4.46319505818689   23.49110773331985    0.45385096792775
F         3.08231448130094   22.52307579691881    1.78463249396902
F         3.80776374326483   21.48690999812922    0.04332185015080
F         4.83348404768202    9.98695215020396    2.09787038134268
F         5.23381603930690   11.36688182875649    0.50029610877404
F         3.61931873739782   11.74368960178589    1.87360491587399

