83
CSD_code = JINPEC | q = 0 | S = 0 | Stoichiometry = C42H30Cl2N2O4P2Pt | MND = 4
Pt        8.08287302630248    0.43793306161880    4.29367981435588
Cl       10.14337246202152   -0.50476412147570    4.34046204354552
Cl        8.07309358807236    0.75943538763674    6.54664650660793
P         7.71988151172584    0.06089108146247    2.09216387701859
P         6.07000106872021    1.44870001327821    3.99882416868090
N         6.03491446305895   -0.22005166229830    1.95579157514311
N         5.40160426521794    0.89043927063831    2.56340595610630
O         7.94272661864535    1.35610122856428    1.17979902684604
O         8.20445519187038   -1.16341193227988    1.17640230508453
O         6.32846432914283    2.99712833616911    3.59752877751291
O         4.85385640159370    1.58348002882432    5.03663103018779
C         7.63283224169472    1.26285227111129   -0.18177073672644
C         6.52567436841745    1.98767366509526   -0.64187380717786
H         5.97775413170854    2.58291791305691    0.07176410728584
C         6.18434189982328    1.93579550037301   -1.96269045465155
H         5.34344756633573    2.50266628611539   -2.33397697418971
C         6.90524066926769    1.11902107050498   -2.85917206221893
C         6.52961145551340    1.00549003514881   -4.21433298395433
H         5.68592234606413    1.58226051957783   -4.56494945134329
C         7.20799638272281    0.17747679206346   -5.06328063161301
H         6.91365121155896    0.09542372881950   -6.09892222005288
C         8.28425607163067   -0.58608115277337   -4.58745277265980
H         8.79655068637310   -1.25771213009649   -5.25997498443696
C         8.68302425180705   -0.48878841928937   -3.28343036605369
H         9.50409794655839   -1.08852024293191   -2.92243531282046
C         8.02380797723003    0.38077496142633   -2.38805515382396
C         8.41482411267474    0.50511432231331   -1.02483593059311
C         9.61058608018292   -0.17652552836485   -0.48709380735421
C        10.90854861280933    0.02095917991831   -1.03589688877687
C        11.16040931480618    0.94846352350891   -2.06982152151903
H        10.34485315774469    1.54157199697659   -2.45436868889298
C        12.42059571905924    1.10993751492779   -2.57437387331314
H        12.59841953165305    1.82501800810500   -3.36389271700345
C        13.49239988963471    0.35830303260012   -2.07037366122970
H        14.47932152106333    0.49326584836580   -2.48726758343045
C        13.28742354618804   -0.52268063309341   -1.04645667619164
H        14.10966585451677   -1.08867336576461   -0.63381328695235
C        12.00243203429056   -0.70551477400700   -0.49292418040351
C        11.79073686058924   -1.57220176051187    0.60001094317056
H        12.63154838053963   -2.10891539122439    1.01158277276651
C        10.55163547153209   -1.70377187376775    1.15863205648238
H        10.37896205047406   -2.31467058866768    2.02950981573954
C         9.47267990800283   -1.00305307795906    0.60621732707302
C         5.64199076925733   -1.49135964814174    2.55508615203168
H         6.24251416680941   -2.27422088026321    2.09798686849488
H         4.58882803553737   -1.67611540914517    2.34636753954887
H         5.80547442368306   -1.48794421153985    3.64267102175725
C         4.03712270427261    1.14775643345826    2.15709983315079
H         3.77036746280760    2.14584932079766    2.50226086230254
H         3.32792729300519    0.42503425847562    2.57277749772351
H         3.98188769744300    1.11702764713608    1.06812712939210
C         7.17573698951127    3.48829951188901    4.60869270977216
C         8.56080798606265    3.46551990074318    4.37674943520530
H         8.91594191481105    3.20435368691849    3.38736681056198
C         9.40870594524872    3.81590101340518    5.39052510700075
H        10.47645682288420    3.81440376259374    5.23348314591495
C         8.90645481247433    4.10913376641530    6.67691424912768
C         9.77899130140534    4.36482555133167    7.75455109884055
H        10.84195418981571    4.37639810473061    7.56339164388358
C         9.29570319194556    4.56257174526238    9.01711171357389
H         9.97145187909888    4.74604337621207    9.83922120299957
C         7.91603867075872    4.50005090640220    9.25688844853426
H         7.54575540323710    4.62213128254492   10.26403531618628
C         7.04095949897896    4.27304283062642    8.23102286081352
H         5.98267299797658    4.20522224816800    8.43050015860094
C         7.50534841147561    4.09609188339476    6.91177695392768
C         6.62587561494144    3.81356032685078    5.82552244248172
C         5.15701839177657    3.82886713646360    5.97197638138188
C         4.50625838900551    4.99860887069769    6.47184653927826
C         5.20471361606406    6.20591189871115    6.69048412293437
H         6.25680995896990    6.25421857903004    6.45720795839186
C         4.56419896372214    7.31260344385871    7.17531850705938
H         5.11515239240966    8.22791384783599    7.33215431869220
C         3.19349489594126    7.27446668119672    7.46739571510107
H         2.70666855198137    8.15369162196692    7.86215062932047
C         2.48021270162857    6.13323218787083    7.23192295878753
H         1.41827399626738    6.09605890353863    7.42765158099968
C         3.10818484140765    4.98141901739020    6.71469195218400
C         2.37184991315738    3.81662186027196    6.41367380854602
H         1.31097009486966    3.79880257495512    6.61350089866356
C         2.98703809276542    2.74107040734087    5.84725507209641
H         2.43859134413796    1.85231035427422    5.57584777992798
C         4.37460149366113    2.75096728249295    5.61397619854817

