91
CSD_code = JINPAY | q = 0 | S = 0 | Stoichiometry = C29H52N5PSi3Zr | MND = 5
Zr       13.88456237370005    0.74312243087089    3.44734417986294
N        12.54175761979915    0.03640809056421    4.88622520619292
N        15.86123100358867    0.30075826979515    3.95091044431953
N        13.40794548297936    0.36297589362667    1.45404625946111
N        14.01507586144845   -1.71179685078866    3.23807422618113
N        13.54879117868197    2.78616414058598    3.53064371859136
Si       12.76419322208721    0.27083180831094    6.56199660819787
Si       17.20286332188345    0.85378683787631    3.05347086820511
Si       11.82602711990709    0.73282030234725    0.91547434215508
P        13.14670985060753    5.13859984099064    2.19833952264401
C        11.92414169459121   -1.17605404654441    4.39411715053091
H        11.40542353850156   -0.97466671612961    3.44167873532103
H        11.18084263584397   -1.58194977865315    5.09634992974181
C        15.92333244989192   -0.99737359790212    4.59005274225661
H        15.31156998177595   -0.99733838053342    5.50654153090940
H        16.94968835145063   -1.27029801432929    4.87636011980259
C        14.09801430669793   -0.80916461592185    0.96586549077961
H        15.18896804449636   -0.64874132603073    1.01634033801282
H        13.84525094252357   -1.03882163516014   -0.08036138404870
C        13.00734942629836   -2.24851571184952    4.15680263133198
H        13.47551372648782   -2.45804257228498    5.12189755044466
H        12.56871252234321   -3.18300056702877    3.77399545118321
C        15.38096616109117   -2.07160099849727    3.62726506369257
H        16.01781790886290   -2.06718991064594    2.73909004190457
H        15.42114351787415   -3.07523493895711    4.07988530767325
C        13.72919153590632   -2.02829829262073    1.83658085697270
H        12.65646301832902   -2.19879614778535    1.71982403449690
H        14.26447214360530   -2.93363666134564    1.50920512819994
C        11.30078669396473    1.22723550480758    7.37016768423754
H        10.44587137306973    0.57568907262544    7.52354411808055
H        10.96576067503110    2.05814831716437    6.75598227338887
H        11.58120736132557    1.62610337814345    8.33971449856610
C        12.92276531302684   -1.32569183437647    7.63473620479561
H        12.11727589267796   -2.02160790335127    7.41903336772843
H        12.86150587090458   -1.08489218377305    8.69093419393604
H        13.86192085392401   -1.85026690792525    7.47845425135737
C        14.39962715744190    1.25483078376710    6.78913397828333
H        14.22614724700393    2.22755603144496    7.23835692305942
H        14.89267588838740    1.40492125516858    5.82141263291704
H        15.09183221258239    0.73173674064706    7.44275113991356
C        18.17747801681792   -0.46670055376240    2.03222103153068
H        17.61238133099717   -0.84512400476505    1.18366286290958
H        18.45287357116643   -1.31581826377952    2.65205168087970
H        19.09896809921768   -0.04646087023660    1.64145673375666
C        16.50220985210574    2.10933320337521    1.79450034544858
H        15.61563058484370    1.70264982742852    1.30188508646206
H        17.23573984856430    2.34004582102182    1.02819015368919
H        16.23441882905133    3.04734647167323    2.27382711897961
C        18.55324360128653    1.66574484434485    4.15931915877100
H        18.11875037679623    2.18961703747767    5.00507846766316
H        19.14638624828803    2.37916338616580    3.59661739769726
H        19.23509469108551    0.91976358624080    4.55640323418670
C        11.80798964567060    1.82715054530790   -0.66444081313032
H        12.33111032195839    1.34945883930395   -1.48788189822458
H        12.27993746715879    2.79005408159345   -0.49600219479304
H        10.79224311864330    2.02023437475681   -0.99368632960349
C        10.71980311354319   -0.78011670964661    0.43488292397859
H        11.23722070529710   -1.43044667376926   -0.26437046508278
H         9.81178814704302   -0.44637662051098   -0.05608498678892
H        10.41914738932261   -1.38318671600928    1.28810688803852
C        10.91904667884267    1.64555182716618    2.34240249134544
H        11.35139022870099    1.41136313318612    3.32314755102171
H         9.86266360985321    1.39335615216271    2.36323036208770
H        10.98512477084583    2.72004381394950    2.19574294090096
C        13.55682626367800    3.48189559474504    2.37845636700164
H        13.77692425263503    2.88869311131998    1.49076402256261
C        13.12574573673448    3.55880973298517    4.68250615598801
H        12.80035628121290    2.86844979517958    5.47194508848450
H        12.26378814103856    4.19138595998785    4.39742108233744
C        13.27236135564157    5.25341199159638    0.38041076945550
C        14.32415792270584    4.70284102768820   -0.35009888341298
H        15.11431547588688    4.17196334312979    0.16208004031446
C        14.37072257017598    4.83957859677603   -1.72435012938187
H        15.18969176405083    4.40206040900996   -2.27881418361250
C        13.38153003160329    5.54199082429017   -2.39315397047220
H        13.42152522076009    5.64706597551804   -3.46783553674666
C        12.34793147913890    6.11962780659148   -1.67414886801028
H        11.57821495138483    6.67821495444749   -2.18831357408872
C        12.29825500982995    5.98144748887824   -0.30059022979508
H        11.49257234095356    6.43165756990313    0.26302953565442
C        14.21606234025758    4.45946305771235    5.21629840211748
C        15.54970860427576    4.09232377438773    5.08128180749495
H        15.79374282547524    3.16127520955353    4.57660109125999
C        16.55243293465648    4.90901569070301    5.57363186023707
H        17.58705269370892    4.62101133846644    5.45463309058474
C        16.23420313509597    6.09405805235110    6.21520886041274
H        17.01775887426160    6.73050358151277    6.59988909198458
C        14.90713878338078    6.46239696886413    6.35730403840551
H        14.65342129297217    7.38740781391998    6.85462925245104
C        13.90435057182407    5.65138440056274    5.85713044637026
H        12.86997341579812    5.94691028749031    5.95838726818333

