56
CSD_code = JINTUY | q = 0 | S = 0 | Stoichiometry = C29H8ClF15NPPt | MND = 4
Pt       20.79619442945527    3.21965074943175    8.53704960030361
Cl       21.77600448659828    2.77903754422371    6.30845639337761
P        22.61310619187640    4.46754233407864    8.09809240576290
F        21.01734615396717    6.39303972725313    9.24549555303734
F        21.39734637533110    8.24831168438737   11.22772382574666
F        23.87842354980091    8.50668328794958   12.35040744729186
F        25.92916493062295    6.94834858130861   11.46739947322044
F        25.54252198232908    5.15679795720360    9.51150026587849
F        23.82833583094856    2.76945447214125    9.85071145748106
F        25.97124710146602    1.05480188095456    9.60301703958488
F        27.38297148385822    1.03284408488433    7.26137734778434
F        26.63878937778399    2.66084921259606    5.21408336987259
F        24.51119679203384    4.29010165770149    5.46671637762396
F        24.54741502915076    6.47870721231770    6.94468546680139
F        24.13622334252915    8.30882505979617    4.97297493480720
F        21.66119582510028    8.54819705305750    3.84838580261300
F        19.60829564775899    6.99743777115043    4.74410118556506
F        20.03474784257494    5.18828763410549    6.70943450402532
N        19.09938975361747    2.20383612882143    8.49022388215263
C        20.20402591804305    3.48342436289054   10.43316683100557
C        20.91481874332180    4.04992072450245   11.47881944196562
H        21.92847856825591    4.39451894480181   11.32637464658712
C        20.35096890600072    4.16285147308280   12.74187881620617
H        20.91893918252855    4.61078194479318   13.54416059108484
C        19.06615097802900    3.70277583691787   12.98134184876670
H        18.63019487285029    3.80339101233790   13.96372389178630
C        18.35140596431685    3.09544787906239   11.96729052573353
H        17.36263395198834    2.71000933638545   12.16566357206497
C        18.91604764640180    2.97437207992849   10.69948146051068
C        18.29550742803013    2.29056040169311    9.57353117622326
C        17.01959914017373    1.73152640380947    9.54552907843363
H        16.38114767705079    1.80952169906772   10.41014621615399
C        16.57969391064859    1.08834489257552    8.40377663085788
H        15.59266132150331    0.65324462002076    8.36799564972991
C        17.42373293668972    1.01204351302859    7.30442886108491
H        17.11709675342896    0.51870374703364    6.39683251092806
C        18.67791867397300    1.58937361905299    7.39028880291744
H        19.36624700147514    1.55549000626826    6.55409295569785
C        23.24841014856096    5.72563602879307    9.33851266993782
C        22.22510837426034    6.54299099348198    9.81123131949662
C        22.40606212744886    7.48348796888375   10.81276802017539
C        23.67104937066754    7.61689990735172   11.38387909007503
C        24.71646288679922    6.81718609641245   10.93246126096870
C        24.49907950016557    5.88334674169311    9.92056096910663
C        24.16315679935104    3.58919843728214    7.69916570703834
C        24.54872861891366    2.72542229734713    8.71942843971133
C        25.62543055891190    1.86183045831232    8.60173354066995
C        26.34250702936238    1.84879809291279    7.40685030868496
C        25.96110732661988    2.68485126197317    6.36084940129148
C        24.87105221482955    3.53812045080576    6.50585792969525
C        22.32956987112922    5.72697445552730    6.79606875086614
C        23.34545529741412    6.57215366263250    6.36581302580142
C        23.14102092139765    7.51836243939118    5.36950505872531
C        21.87574661117565    7.64676283310302    4.80127981923420
C        20.82889713879184    6.84745642717913    5.25560580728059
C        21.06166950269375    5.90696491629464    6.25276904056786

