66
CSD_code = JINWOV | q = 1 | S = 0 | Stoichiometry = C31H32NPRh(1+) | MND = 8
Rh        6.34317291423050   10.31326732242589    4.37415352223285
H         5.81723462728803    8.88866940404533    4.36212737289755
P         8.28503180308702    9.57671480692670    3.46655254251151
N         7.22412242643502    9.72002272837206    6.15839388564417
C         6.58878161370110    9.87039438924758    7.30396543829978
H         5.60034583607249   10.30909813914243    7.26795323948826
C         7.11509164779431    9.47084633775324    8.53776633206266
H         6.53869100353456    9.63535588317156    9.43365249342277
C         8.34256427916773    8.86664540286978    8.57908432757516
H         8.77760914574147    8.53489475596241    9.50922418505978
C         9.04189549835119    8.66338765758294    7.37228984336682
C        10.29887495044971    8.02568341692158    7.31869336248680
H        10.74392555594373    7.68711729656530    8.24172101818196
C        10.93481809193319    7.83592819397339    6.12233147838591
H        11.89295083903119    7.34138392772222    6.08703201565760
C        10.35126725642958    8.28642671763263    4.93070628883133
H        10.86743867041940    8.12980739549186    3.99601100606128
C         9.13284016643224    8.92184834572940    4.94406940448313
C         8.44512997478365    9.11535054234255    6.16468668544028
C         5.66172090801669   12.40779267424095    4.96442866419861
C         4.55076328124565   11.48884089255717    4.85244511624568
C         4.48335169246186   11.05082754771517    3.48781284676422
C         5.60825871269200   11.60430872438091    2.79666829812778
C         6.31585600756036   12.47827018113497    3.71396589141217
C         5.95369671486221   13.27479225943320    6.14693722243041
H         5.72959821692156   12.77607231819381    7.08802406104940
H         5.33337601093924   14.17090659673449    6.08816991586180
H         6.99532871395839   13.58785442608208    6.16135922910984
C         3.43436360978712   11.34418765071342    5.84224103624490
H         3.08389833997399   10.31558549766383    5.90449367284780
H         2.59518256761746   11.96318136934227    5.52044568514414
H         3.72845571020764   11.67694795819757    6.83498543790958
C         3.32958304028215   10.34081850839882    2.85451175427566
H         3.64428660354637    9.75785094773054    1.99277097066393
H         2.60769656538830   11.08558090866245    2.51440160695129
H         2.83049171576967    9.68189294157634    3.56003922028481
C         5.80443353896985   11.56272359568506    1.31368188903392
H         6.82686796395170   11.81322154922844    1.04184017916408
H         5.13950409692369   12.29181935708384    0.84755345880748
H         5.56622393467499   10.58080277041898    0.90990341149973
C         7.34549747805567   13.49359143450601    3.32910855868668
H         8.06119973076795   13.66650474893992    4.13030947594698
H         6.84516472221257   14.43929875550224    3.11347722137040
H         7.89509845400019   13.19200661824712    2.44130616156412
C         9.46546191656619   10.81239386587460    2.84740712768482
C        10.22211036080302   11.56632037145026    3.74022676457373
H        10.15572550404112   11.36617611559124    4.80192005438610
C        11.06188986243060   12.55855392036366    3.26805746423273
H        11.65777866784746   13.13313625814312    3.96101846238116
C        11.13823176861414   12.81701977372315    1.90841356579113
H        11.79414004551397   13.59172743756633    1.54287211120518
C        10.37048391447844   12.08287369088111    1.01772762519149
H        10.42591766460769   12.28711711206783   -0.04088356998756
C         9.53098407819794   11.08698880012284    1.48305208171118
H         8.93430812742106   10.50741794669886    0.79126246858458
C         8.41018726216444    8.22641007084523    2.25500327051664
C         9.61297169566676    7.93258981836878    1.61458480046303
H        10.48927715046629    8.54083012261913    1.79046737480320
C         9.67979525780976    6.87318813991546    0.72885864607622
H        10.61305082883454    6.64716719676336    0.23560232252510
C         8.55411921253240    6.10680172660915    0.46938829491780
H         8.61272634035482    5.28249348869249   -0.22443432903073
C         7.35393494303988    6.40499219727156    1.09325373450806
H         6.47449111795834    5.81497451370996    0.88506663806663
C         7.28123480753749    7.46154110566756    1.98340405353016
H         6.34819484150399    7.70686343082848    2.47383561019559

