84
CSD_code = JINXEK | q = 0 | S = 0 | Stoichiometry = C39H40ClNP2Ru | MND = 8
Ru        3.08435913990524    1.91921355854358    4.74999646482658
Cl        5.03287114492850    2.59323619929911    3.52745755677828
P         2.03813032407389    1.32524980225825    2.82852286110425
P         2.48175433783389    4.11088364006007    4.76362480941998
N         3.06191850035156    5.04397087836335    3.51748753770844
H         3.81608212887323    4.51561281419669    3.07146330018761
C         4.16283567591074    0.26072904060751    5.84786640709174
H         5.07292351421120   -0.25458754437637    5.56824108657757
C         2.84910742709969   -0.16727866646706    5.57610070847797
H         2.56818661641766   -1.07120677728786    5.04965770975923
C         1.94703159615930    0.70739559820171    6.25240614848394
H         0.88149105926344    0.55192076786284    6.35419510752934
C         2.72619996562836    1.64956134371384    6.96754769815964
H         2.35334979036800    2.37109194351660    7.68307547312840
C         4.09230100606294    1.39728579982606    6.70243197683951
H         4.93060414234791    1.86017727875891    7.20485214296504
C         2.93255437612709    0.17776820871796    1.72248639357822
C         4.14592053178369   -0.37097160240187    2.11306776116806
H         4.57557907193149   -0.08772998508637    3.06438373904472
C         4.81338416143668   -1.25298547204458    1.28072616663996
H         5.76118496572896   -1.67084692227082    1.58747594732331
C         4.26884585361927   -1.59377670077148    0.05502847640366
H         4.78879043742314   -2.28136360672516   -0.59610800673026
C         3.05657289696289   -1.04851992260719   -0.34119247555131
H         2.63193091157431   -1.31390924900337   -1.29872805256597
C         2.38999721799088   -0.16505203342195    0.48504305760586
H         1.44444755024008    0.26280022552094    0.17946390945091
C         0.51469218081783    0.38584262660483    3.17528848431230
C         0.36954667485178   -0.97014072044898    2.90736365952016
H         1.16464074846743   -1.51487039705737    2.41745167099868
C        -0.79433834653377   -1.62743680124591    3.26912391899343
H        -0.90015040121579   -2.68189416228511    3.05768046465540
C        -1.81860783653413   -0.94251230327849    3.90040662126239
H        -2.72482829011050   -1.46060389495595    4.17854652434230
C        -1.67349684547486    0.40685210394467    4.18385343464165
H        -2.46392793921083    0.94660390337235    4.68566872543158
C        -0.51011650976525    1.06337466002346    3.83231416283441
H        -0.37537528001022    2.10896367188151    4.07069384811763
C         1.51329962129474    2.52864977261044    1.56214813584772
C         2.55683273523059    3.21418342382854    0.94184575630592
H         3.57358637728553    3.01185937057063    1.25605498785126
C         2.29051270386420    4.12165348071084   -0.06444040917431
H         3.10123261748125    4.64138887309633   -0.55338959881140
C         0.98065529676714    4.36071805153900   -0.45237119022549
H         0.77033846299032    5.07254970621572   -1.23763287188713
C        -0.05725461126789    3.68176413768582    0.16242531322577
H        -1.07770326782749    3.86180551296555   -0.14455856702253
C         0.20319199476941    2.76212986636375    1.16481082825081
H        -0.61305560470743    2.22688225355746    1.62801318650511
C         0.68435260100380    4.39999338490616    4.75252413679179
C         0.05183061373706    4.86406586718812    3.60476761585174
H         0.65282589859561    5.12892668757858    2.74799098130307
C        -1.32710397959024    4.96215072790417    3.55858145978889
H        -1.80977513233782    5.32605524058047    2.66289098108454
C        -2.08897657565594    4.58873450135787    4.65369491836711
H        -3.16567233755679    4.67000954852831    4.61862380714439
C        -1.46796366762883    4.09229064288463    5.78944064248841
H        -2.06093311292542    3.77940572312246    6.63730645364175
C        -0.09028106223525    3.98435650715031    5.83319123871902
H         0.39334884650820    3.55982595757190    6.70254009045442
C         3.05098105952547    4.87723791156252    6.33615735456836
C         2.27912449404681    5.58490133450447    7.24842689597857
H         1.22535189828281    5.74513238463729    7.06648001507234
C         2.86258092817987    6.09712993047200    8.39596690186767
H         2.25622097230705    6.64463793956700    9.10352664611924
C         4.21316554589706    5.91376730870544    8.63860838531740
H         4.65937816164080    6.31291981886177    9.53773001678868
C         4.99171399213894    5.22058762278327    7.72420340577915
H         6.04829465589713    5.08451124820884    7.90507274160573
C         4.41210942794960    4.70547908910402    6.58096669682937
H         5.00802653477339    4.16602451673158    5.85242912626053
C         3.32409831632869    6.48551095906311    3.40436398579860
C         3.30966948070865    6.80635918276357    1.90566236169109
H         4.10880062680427    6.26948614164608    1.40085501210842
H         3.45047576325186    7.87263181366298    1.74757514664500
H         2.36241318344215    6.50815929796426    1.46340503326153
C         4.70361840551492    6.82892991871875    3.97649104695174
H         4.70105832454065    6.73945102158234    5.05967003039476
H         4.97715510411616    7.84823452802780    3.71404357131837
H         5.45409712666011    6.15159117508203    3.57503566624268
C         2.25150797217817    7.30292738821115    4.11692619667622
H         2.18853430730904    7.01478903030735    5.16257677601223
H         1.27903834435063    7.15835297492241    3.65568231205300
H         2.50640445684200    8.35910092144347    4.06592135764419

