69
CSD_code = JINXUA | q = 0 | S = 0 | Stoichiometry = C26H39BNPRu | MND = 8
Ru        3.27241263146472    6.47652859617964    1.96180911939956
P         5.47284889576948    5.90690104452810    2.07687545751281
N         6.25244322718958    5.80429230462229    3.58157271357855
B         3.30312814762416    8.18083318468872    0.60164501624829
H         3.44275188111445    6.83080740530621    0.34945069430644
H         3.52983890300644    8.10256510677854    2.02702084063519
H         2.22131090621736    8.59389578006766    0.35234886737501
H         4.19054885747371    8.77165520151756    0.09298694151516
C         1.16089711220021    6.59185966755812    2.72117424256274
C         1.19785299793797    5.67073457923171    1.64577307580479
C         2.09357687409029    4.60062859987196    1.99183635498811
C         2.56875756045338    4.85184517405369    3.31962029275159
C         2.02682049797418    6.09947183017460    3.76332469563254
C         0.20388255228219    7.73685565953805    2.86315306072210
H        -0.75565284059262    7.36969300434787    3.23639852498110
H         0.02984316698374    8.22700385116834    1.90681590512704
H         0.58099077230703    8.47887433943976    3.56438086062244
C         0.30603990623524    5.70175779423479    0.44235756536480
H        -0.64780088501811    5.22518485535297    0.68262048864760
H         0.75148804892329    5.16616155752530   -0.39395619590181
H         0.10446746735570    6.72406986382882    0.12701516279409
C         2.18059571427522    3.29450050170747    1.25706217138160
H         1.30915176023560    2.67906080580238    1.49547605251112
H         3.07580168889245    2.74149597671346    1.53268422162500
H         2.20137340716394    3.44722794219196    0.17910794434116
C         3.26172014145623    3.86088351443575    4.20731580979808
H         2.54185842294022    3.45616000690622    4.92233743289705
H         4.07450641657944    4.32148486462367    4.76518232656435
H         3.66702429469261    3.03641702878471    3.62711500270397
C         2.00930199879340    6.58951319715080    5.18392976068415
H         1.05821914971517    6.31829063785220    5.64944958649688
H         2.11034418967143    7.67302411240747    5.23740240797277
H         2.81142682926987    6.13945368696045    5.76440925024812
C         5.66384983938476    4.20721070155740    1.43227217063543
C         5.94586302585097    3.09359827606870    2.21246707430898
H         6.15263001161077    3.21867322601461    3.26410313305624
C         5.95588686396785    1.82929248010354    1.64648918311118
H         6.17869445561951    0.96767777281370    2.26050858595876
C         5.67849430008175    1.66503151433266    0.30017750783028
H         5.68785554008083    0.67770510218412   -0.13816606827489
C         5.37831538338389    2.77070588227916   -0.48249359611691
H         5.15194259689136    2.64370960893774   -1.53151765164715
C         5.36266003506387    4.03051413433448    0.08274128647726
H         5.11357624518897    4.90278428821061   -0.51115290741224
C         6.72945343669537    6.78516567322482    1.04421784430305
C         7.68658201918708    6.17243634103157    0.24352832411105
H         7.70405410602604    5.09644734123324    0.13937484806423
C         8.62213393833831    6.93705843855871   -0.43226556431397
H         9.35953893579921    6.45103328091679   -1.05527960340224
C         8.61917866536818    8.31615480852998   -0.31181437077739
H         9.35153266725490    8.90745031091635   -0.84191192164160
C         7.67403206108746    8.93462752301010    0.49080201188869
H         7.66684769851580   10.01072912644450    0.58806781377365
C         6.73794986967554    8.17193567045067    1.16286314779049
H         5.98307448310300    8.64190451746241    1.78085719437560
C         7.67775765994577    5.50456442513875    3.59706290866218
H         8.28075188852635    6.41792245406441    3.50897239158649
H         7.88762412492464    4.88992621412263    2.71759952231763
C         8.09695920532896    4.74351258609852    4.85220676088441
H         9.12614150189010    4.40932673008760    4.74650566032945
H         7.46472604971143    3.87192818157454    5.00350338475800
H         8.03176953728409    5.37246314382786    5.73603633778850
C         5.75239639033050    6.63999474276635    4.65924260686077
H         5.74712024657179    6.05881291429077    5.58980907358126
H         4.71606377492649    6.88387688773537    4.39056165463121
C         6.51517532465742    7.94255549736130    4.88981695480653
H         5.98360995723450    8.54452732827831    5.62280583029406
H         6.58530627113101    8.50479819036975    3.96247427599629
H         7.51948119468624    7.75931301012160    5.26433854351558

