47
CSD_code = JIPBEP | q = 0 | S = 0 | Stoichiometry = C12H27N3O4Zn | MND = 4
Zn        3.57490731194658    8.96087710439781   -2.73529018086122
O         1.53816302698294    8.48918167392772   -3.04210082431329
O         3.15602877957576    7.08579228553243   -3.43228537385319
O         4.30059483005009    9.61235559889659   -4.52085639582987
O         5.59556388204187    9.29376337242137   -2.80183708873729
C         1.94841307914917    7.39980388549720   -3.50301014737480
C         0.96842443734746    6.43921389628313   -4.13916391278666
H         1.29829903872778    5.41617161340789   -3.98560777041223
H         0.94760201175058    6.64136723307882   -5.20781246856155
H        -0.02686672014392    6.59303815237515   -3.73285159243925
C         5.44271690321761    9.56049990425324   -4.01488158312912
C         6.65314545931415    9.83314526054111   -4.87921629452075
H         7.45198392413101   10.25711260357937   -4.27832912483874
H         6.38433993065122   10.49721604466448   -5.69490942425423
H         6.99153287524022    8.88651404055396   -5.29461769124692
N         2.88771398779843   10.91488629274914   -2.07704442589908
H         1.88760888000797   10.76092920689958   -2.18332566584545
N         3.60697482889182    8.17616536994275   -0.72394857228791
H         2.70372228015179    7.71217764080345   -0.65972833817998
N         0.33770234597203   10.88310433788462    0.29254509129124
H         0.46635069691827   11.52534581095055   -0.48396985540522
C         2.74354424805215   10.28912496485079    0.37521439449965
C         3.15451141036470   11.31262686158926   -0.69652278375955
H         4.23148246486969   11.48443281942241   -0.61407236811884
H         2.64866535105447   12.26581573075418   -0.47763296548251
C         3.72045285563468    9.10123191944306    0.40111730340706
H         3.57900262116222    8.55210835631496    1.34543090531952
H         4.74112170285166    9.49181355513314    0.39119414731185
C         1.29759415017346    9.79463908737178    0.18851690348923
H         1.06833417426174    9.09675844738356    1.00149239891369
H         1.19577978106460    9.24838941926365   -0.76180511511189
C         2.84328857834390   10.99762855417962    1.73366992197557
H         2.64714792185412   10.29964236643657    2.54298477299417
H         2.10318745211619   11.79007278345387    1.78749801024650
H         3.83446891669098   11.42114382554969    1.87436279176516
C         3.25269708375491   11.99434776863933   -2.99133211895631
H         3.00514924202059   11.70212895303628   -4.00828847312146
H         4.32727391537730   12.16322016682462   -2.93577055007976
H         2.73587813899690   12.92907459256769   -2.73982323171807
C         4.63415887723733    7.13774684130292   -0.63407664831965
H         4.47844668158763    6.41727969943715   -1.43274917479580
H         4.60702078719079    6.62709978417146    0.33571923986399
H         5.60943144395292    7.59770809626640   -0.77579032930147
C        -1.03211127248415   10.41132352495522    0.28158554322209
H        -1.70129656916704   11.26914315735511    0.31292002818826
H        -1.20126427591998    9.80680189277441    1.17318231488575
H        -1.27628747076193    9.80183550288259   -0.60098327782902

