100
CSD_code = JIPCAM | q = 1 | S = 0 | Stoichiometry = C48H46NO2P2Pd(1+) | MND = 4
Pd       10.80786321970026   18.30728062312872    2.87543851198922
P        11.07047048680969   16.12335329158730    3.33155464850058
P         9.95610979367962   18.73159009311491    5.02695605909264
C        10.90522026265602   15.99884941420310    6.12354898592482
C        11.72612815522703   15.84431608872702    5.00680071043170
C        13.08713370877209   15.58652929652780    5.17511190415079
C        13.61772139046781   15.47199060424838    6.44307726138623
C        12.81600069066994   15.62088064140293    7.56136843462153
C        11.45901346858696   15.87738361164715    7.41204157847181
C        11.05979029718610   15.88982340938150    9.75673443799552
C         9.44109194271202   16.20460354027080    6.04777830414035
C         8.86327803782661   17.41535176975454    5.66931471800307
C         7.47785738565530   17.56018905959856    5.70079417503118
C         6.68363179470091   16.51188381522139    6.11825811118082
C         7.24311515795770   15.30533012470034    6.49919089906536
C         8.62254679533041   15.14405905665166    6.47376146587960
C         8.52307786380496   12.91794267656832    7.30848630728820
C        12.25845896751555   15.27690344817612    2.24813498013606
C        12.06930844771312   14.01467942972075    1.70444970220555
C        13.02743743978805   13.48594925553351    0.85431789317395
C        14.16680945716215   14.20892975529281    0.54669746581836
C        14.35667167312240   15.47346485518575    1.08519582575815
C        13.40318075355915   16.00702743480659    1.92780434720908
C         9.49202553324550   15.24826986893430    3.24711866525322
C         9.33470510477150   13.93264851015894    3.67005127325048
C         8.09146164725769   13.33395346458496    3.57190721783416
C         7.01081346202337   14.04486227298484    3.07340433438435
C         7.16453995895080   15.36061264168391    2.66397620177626
C         8.40609980592995   15.96169543466967    2.74576063523214
C         8.84946050547447   20.17522595856942    5.04480630658604
C         7.97733482361237   20.23599544583779    3.95546496271605
C         7.08967156208875   21.28710754758324    3.82878952366161
C         7.08301245158347   22.29660690144995    4.78065236035155
C         7.96539868612072   22.25393770240022    5.84748142531240
C         8.85129903928266   21.19727489567717    5.98462939867640
C        11.14911692914682   18.94490622869402    6.37485449647336
C        10.77622164241957   19.06650363961471    7.70912270246034
C        11.75357951159364   19.20784023684134    8.67747550337317
C        13.09418047632914   19.20413375627786    8.32319436967260
C        13.46841413832177   19.05957920550409    6.99625617702518
C        12.49576316878797   18.93529672804068    6.02281523721687
C        11.26588881379330   17.94200479252618    0.95680219981530
C        10.78173012542138   16.92495924547906    0.15080487249319
C        11.11560394964483   16.88170674255883   -1.19591980495274
C        11.93491897446530   17.85457361282755   -1.73571149621444
C        12.40031442027047   18.89240249268218   -0.94443910073394
C        12.06350419301548   18.94555774252199    0.39987932102641
C        12.47031425461658   20.05974297385048    1.34741483740891
N        11.26232610256590   20.37745838215046    2.17676417653767
C        13.10114962625464   21.26111821744535    0.64518513187684
C        11.59699746079722   21.29518938995730    3.26685675265299
C        10.19720142981162   20.97220025435783    1.36571970713663
O        10.59304406282541   16.05890020656208    8.43747596091630
O         9.27207938410918   14.00103040025937    6.80534527414198
H        13.72416945170085   15.45855939753119    4.31342288612499
H        14.66918225882985   15.26344983027902    6.56808789451085
H        13.25569671502347   15.52883911620393    8.54082141056608
H        10.19505432675020   16.05859327636629   10.39609134737939
H        11.83910843495108   16.61763946344665   10.00187927430272
H        11.43848192457853   14.87683784724774    9.91996307891024
H         7.01838555779386   18.49373685832514    5.41576754156300
H         5.61159621407545   16.63247234671273    6.15068111509523
H         6.59893994962109   14.50359023772712    6.82083221530262
H         9.24938656242674   12.13764857075479    7.52961419263612
H         7.80720575134809   12.54700049997001    6.56897794765228
H         7.99341157420045   13.18941767972452    8.22607869761602
H        11.17387160417629   13.45266008088032    1.92563762219156
H        12.87826071735399   12.50638502017947    0.42599529190290
H        14.90547998188869   13.79246976000246   -0.12067489185173
H        15.24113724094072   16.04056547762255    0.83728321196325
H        13.51980810323578   17.00822528140745    2.33998539919042
H        10.17413223830008   13.39859999588165    4.09324149774426
H         7.96359323330900   12.30812813982775    3.88479889616149
H         6.04297785618130   13.57190717034562    3.00468887191440
H         6.31737966714060   15.90923938238857    2.28113192147062
H         8.55705052936170   16.99873542529340    2.42209866691302
H         8.01033258230987   19.43835745495046    3.21133442309232
H         6.40880397729392   21.32663661836841    2.99137404708208
H         6.39331868406117   23.12077612245393    4.68449866525457
H         7.96510958350380   23.04797935393555    6.57867363195118
H         9.54586566474707   21.17471713638945    6.81191172459383
H         9.73087519023420   19.03176058948608    7.98223025964415
H        11.46936225198943   19.31708206009908    9.71390671186916
H        13.85163177493581   19.30827223512197    9.08563590923788
H        14.51411764007304   19.04218777654632    6.72816498175809
H        12.76568175876998   18.79821666519917    4.97321549750784
H        10.15001792338006   16.14199272394613    0.55994860718057
H        10.73876439446365   16.08166710550527   -1.81537407179713
H        12.20724664337478   17.81556199934445   -2.77925424354913
H        13.02375111052879   19.65296522363898   -1.38768467080472
H        13.21550184797541   19.65290749580551    2.05735591042107
H        13.32117842992518   22.06236416413042    1.34555584111752
H        12.46107331725622   21.64535345336041   -0.14445756049171
H        14.04373356022343   20.95113953861973    0.20159685547197
H        12.44281303880079   20.90939527419148    3.83990626127573
H        10.74037736277828   21.40286795825827    3.93477019291234
H        11.85048197877052   22.29366838750386    2.89320578087716
H         9.95487548973987   20.31685477796826    0.52728528790396
H        10.49055180823491   21.95373749369702    0.97763238705196
H         9.30763565843982   21.10783134530109    1.98200813046084

