66
CSD_code = JIPCAN | q = 0 | S = 0 | Stoichiometry = C28H23FeNO9S4 | MND = 6
Fe        9.20004721666140    6.35194911152244    4.56991153594873
S         7.27600569207711    6.27457042913217    3.36152684611591
S        10.36363437566726    6.28245206859445    2.66026815796381
S         8.04411806336642    6.11403265444230    6.47055437101891
S        11.12517015404792    6.35647686665955    5.78023644487953
N         9.27131162569518    4.41724966048728    4.52707618887205
C         9.13864352468985    8.10516378360022    4.60985986178928
O         9.09815770368429    9.24316315076699    4.63290799414454
O         4.59092019823088    5.14551328097428    0.35151057653448
O         5.17368182743549    4.42944689616952    2.39414127932009
O        11.00162314863212    6.01410976486164   -1.63159032040378
O        11.88891333517750    5.69300173024773    0.39673514771664
O        13.88312977611047    5.25426531766582    8.74681589774413
O        13.34191708903747    4.60988408758118    6.66949974507076
O         7.42231043727700    5.62964953531065   10.74369847842966
O         6.56439434320538    5.31454791163744    8.70198359548030
C         7.80198237915781    5.70351263093543    1.83608477740373
C         6.86241690739270    5.21892191816160    0.89631333967740
C         7.24895994474282    4.96222355827755   -0.40973351395969
H         6.51179361596392    4.60463562523419   -1.11171723443629
C         8.55671786258345    5.15642105973857   -0.81226241560156
H         8.85207148982317    4.97870473495445   -1.83287418517287
C         9.51758158482279    5.55828470883624    0.11647388283138
C         9.14934864102572    5.78431463492769    1.44114811498277
C        11.13066801056251    4.66029194927521    3.02854859272182
H        11.48938677168358    4.21949162828265    2.10187285425513
H        11.98313416608550    4.91592617539446    3.66334431256847
C        10.64023003027562    5.68546682940786    7.27821803941045
C        11.61065420187486    5.22587254431563    8.19923142678298
C        11.24282199735005    4.89243059591029    9.49347416432182
H        12.00282497283260    4.55750282356057   10.18212976992855
C         9.92521830542049    4.98162309841787    9.90073185704962
H         9.64312657710675    4.74429708887095   10.91294655127831
C         8.93863774802640    5.35122232774841    8.98565169174460
C         9.29055020118053    5.65586891627129    7.67247414671606
C         7.40127841330985    4.45575583842116    6.03123130491544
H         7.07713043209590    3.95041867663208    6.93746012280387
H         6.53177755722705    4.67331818268712    5.40543362125015
C        10.18346340453958    3.79279512451650    3.77502187568251
C        10.25883948738695    2.40996526689928    3.71535008500268
H        11.00689071944158    1.94296290349026    3.09542275287852
C         9.37825982437814    1.65449842901254    4.47140126100912
H         9.42020255290856    0.57670726279778    4.44990550839722
C         8.44290989313364    2.30865467636766    5.25561380216268
H         7.73434154186148    1.76065964294554    5.85529590898405
C         8.41108414659181    3.69447609483945    5.25171631665008
C         5.47900826823969    4.90056311178825    1.32767436946305
C         3.23779854688539    4.84885029417980    0.66064957389822
H         2.64586934285240    5.22522620012958   -0.16972973434167
H         2.94816895037650    5.33625566392954    1.59373958575983
H         3.10113950575726    3.77064802724168    0.77128332774384
C        10.92056902616425    5.75321372540876   -0.32297631707906
C        12.30886755094021    6.24439118725983   -2.13645491576011
H        12.18578656488900    6.52821504770665   -3.17825772470853
H        12.91312104578785    5.33830006036184   -2.05416289937134
H        12.79651164857274    7.04283743770856   -1.57373408663885
C        13.01007189049035    5.01047889592003    7.75680810386503
C        15.24972948337304    5.04260924793591    8.42753209240126
H        15.81779113497506    5.35055929644248    9.30148543668584
H        15.53074799289728    5.63721762172737    7.55607707484379
H        15.42892934906270    3.98840715914283    8.20443533478239
C         7.52452392209458    5.42397737439289    9.42684374482408
C         6.10031666071489    5.73616423005032   11.25157539499056
H         6.19931039776639    5.98011830578014   12.30594749480530
H         5.56717970969362    4.79147277952124   11.12418937420814
H         5.55417711667870    6.52029313657715   10.72353023676702

