25
CSD_code = JIPFAS | q = 0 | S = 0 | Stoichiometry = C7H12AuCl2NS2 | MND = 4
Au        4.71513920537450    6.34981290661161    6.79828020841688
Cl        2.61754198257993    6.80644038053228    7.53493564520436
Cl        5.58733595968953    7.33556035935225    8.64710353201441
S         4.12211031739962    5.27856611462707    4.76747205249580
S         6.75607276628498    5.71490476937519    5.77096162202189
N         6.29650948410928    4.46182399280096    3.44677413671363
C         5.80238880599896    5.06699293875149    4.50186446087179
C         5.41025206581433    3.96863681215567    2.41204321792743
H         4.50042452153023    3.60026507069858    2.89374576590595
H         5.90366408315395    3.13964339055697    1.90451707098255
C         5.04548120153654    5.07692856826613    1.42191151339677
H         4.19227852073285    4.74279878324168    0.83085821034485
H         4.72946916077101    5.95379544252726    1.98913136769031
C         6.19035436800459    5.44665846619388    0.48319629316889
H         5.87036549846114    6.29453709216021   -0.12454473498156
H         6.38558772158609    4.61384467798858   -0.19658180712271
C         7.49025860091166    5.81423186483639    1.19980558597148
H         8.16593084863951    6.25357322216816    0.46447782256861
H         7.29688291555152    6.57261947793824    1.96025579363599
C         8.18229479245519    4.60493427649721    1.83437425084437
H         9.25837599800133    4.77783506745920    1.87693947942691
H         8.02445131557844    3.72913433575257    1.20290570536658
C         7.72814273095949    4.32477569844939    3.26779316865197
H         8.02643012606240    3.31293628250545    3.56427338111001
H         8.20885700881476    5.03025000855020    3.94990625737330

