63
CSD_code = JIPFIY | q = 0 | S = 0 | Stoichiometry = C15H39CrFN4Si3 | MND = 5
C         2.43966060477552    4.79288303876638    6.44110741160043
H         2.05286280940792    5.79893453691968    6.65704738530038
H         1.58181006298729    4.10709669406866    6.50323026406404
C         3.03186013093378    4.77343852519405    5.02899532834967
H         2.25888751055480    4.60510848882113    4.26403605211496
H         3.51625691704349    5.73241081061946    4.84109993097345
C         5.89718927727009    5.13150722618711    4.23810416103387
H         6.85909815358304    5.01495038107775    3.71958723194855
H         5.46057402898560    6.07583102111139    3.88140513113237
C         4.98571677218741    3.95508378218676    3.87478603737569
H         4.44812979286783    4.13136131915273    2.93107162966781
H         5.59622111698399    3.05694153668258    3.77543735923057
C         4.57398026817881    1.40783047426961    5.38779614964879
H         4.10219092814345    0.55062567020216    5.88893537889458
H         5.08845428864942    1.00841185958533    4.50177253831003
C         3.48655050755559    2.40237825569482    4.96275080417767
H         3.07495326430873    2.15512736404217    3.97266123467967
H         2.68124154066366    2.37953565503621    5.69791056329358
C         1.17275207313934    4.34951959045266    9.28428863898381
H         0.86850350722221    5.35881167300061    9.02928744287445
H         0.91521767500601    4.18399013175589   10.32397257096363
H         0.57703921484219    3.66474099568413    8.68981036642343
C         3.95964811779848    5.23827923256332   10.25342578437264
H         5.02836221161111    5.19903575600767   10.07752276845881
H         3.77715013969132    4.92165891183410   11.27553293813595
H         3.63936751637165    6.27259762636979   10.16636975266733
C         3.46225444472200    2.24576752309783    9.34992623460543
H         2.68680983678366    1.57658527560055    8.98522733278051
H         3.59402717097141    2.04754772679403   10.40828286368768
H         4.39128206101544    2.00058169240338    8.84152033401558
C         7.43711823282218    7.74526733663459    5.04582600750492
H         8.10625098267880    7.28214914361981    4.32881840290781
H         7.96739604416698    8.57554376005048    5.49773726045034
H         6.59771888982201    8.15761229871782    4.49592591139768
C         8.43743582934841    6.00955252363064    7.38552890707977
H         8.19729316519886    5.21107600357304    8.07747674165100
H         8.80942585451781    6.85110120922197    7.96146790715754
H         9.24333127044760    5.66919342480569    6.74186289893305
C         5.58414498994294    7.37291533172275    7.51791436110946
H         4.96826048249035    8.08217189109012    6.97078139170998
H         6.05530453923094    7.91020575155780    8.33384142498708
H         4.93431799073437    6.61287091827958    7.94412647997668
C         7.13916245187241   -0.38006797086890    5.76407255654488
H         6.32114039987910   -1.04754799856535    6.01265721578766
H         8.06156916675260   -0.87645568153396    6.04272950225643
H         7.15079349364964   -0.25808804156060    4.68583295215017
C         7.11307925278633    0.93183907019736    8.55495660739479
H         6.96243757554660    1.84511963229160    9.11894690022270
H         8.09275890301698    0.53949084381309    8.80898289050082
H         6.37214002080337    0.20762120769177    8.88158042685177
C         8.41309039675028    2.43648657702900    6.08670144937791
H         8.68427539631023    2.25714369461672    5.04947269040090
H         9.30693423723018    2.30311221433484    6.68639563471762
H         8.09236587360388    3.47012507262305    6.18365265515132
Cr        5.14909218723776    3.87669711611094    6.69976100183502
F         6.14369585503168    3.97604989993868    8.28011348399323
N         3.47305316396825    4.42466011766942    7.37362109215234
N         6.08320140111880    5.15322842693555    5.66637203883428
N         5.50007086395011    2.07402166736749    6.26514368844331
N         4.06270646855603    3.74178173672527    4.98453126653816
Si        3.05353923501375    4.08803149024566    9.02747539798345
Si        6.88001093401063    6.51229512719255    6.40266084914840
Si        6.99773250725967    1.29582342964812    6.68323038508729

