66
CSD_code = JIPGEV | q = 0 | S = 0 | Stoichiometry = C31H26N4O4Pd | MND = 4
Pd        1.84119259323633    0.33357301969929    0.45474382931475
N         1.05950258876841   -0.98804803273856    1.52825160082493
C         1.15972610322828   -2.26104885123719    1.15129469622977
C         0.59965688542182   -3.27114738490537    1.92381863516627
H         0.69420425227386   -4.29264091882869    1.59068024928723
C        -0.06611648335991   -2.92530791598181    3.09136270301242
H        -0.51022948620710   -3.69123173601290    3.70944335281000
C        -0.16275298591811   -1.59026176431677    3.45880102081581
H        -0.67200267723419   -1.27062542446581    4.35418633331168
C         0.42035080772261   -0.63070042672628    2.64096953924393
O         1.94364098846978   -3.59439478063832   -0.67363686693321
C         1.83922981438600   -2.47333595168630   -0.18545121389407
N         2.23077611444637   -1.31442343204804   -0.73398344614461
C         2.71729979161562   -1.36736792741081   -2.10475213705843
H         2.13498542358530   -0.66178175381827   -2.71255080894511
H         2.54567037196985   -2.38719771146424   -2.47589317841643
C         4.18263838567260   -1.04093275858266   -2.20903408665575
C         5.13099123078681   -1.90949177288375   -1.67605806854309
H         4.79920003852504   -2.80566982386978   -1.17352776683123
C         6.47710841396190   -1.64522822691375   -1.80278915049972
H         7.21850342308617   -2.32410255638017   -1.41146795694471
C         6.91432335344888   -0.49542808783805   -2.46155524353824
C         5.97326761866105    0.38881536318274   -2.97239256644872
H         6.27566144042838    1.28793999842116   -3.48688388860639
C         4.62266452870568    0.10504613854617   -2.85013779778305
H         3.90134584533219    0.78399234806097   -3.28430213362807
O         8.26928781743773   -0.34659712064032   -2.57093198654506
C         8.77516387522805    0.91649941209592   -2.94687976127346
H         8.43185965118040    1.20262421608790   -3.95002835412826
H         9.86064321460318    0.77271913863101   -2.98860784622989
C         8.43900612670495    1.98175944701861   -1.93217796682486
C         8.48358957200584    1.65566329414504   -0.58206796981251
H         8.76938730477579    0.65608265295933   -0.29154545426166
C         8.16412626829189    2.59499827434645    0.37578450975639
H         8.20502747588184    2.34366438508054    1.42429008868305
C         7.78428516189750    3.87899972392427    0.00592694086892
C         7.74355114517937    4.20853781402692   -1.34138814111615
H         7.45544740769006    5.20596496031271   -1.64317868373002
C         8.07195059197786    3.26712915728326   -2.30369964707234
H         8.03950893612637    3.53692331488367   -3.35028935241506
C         7.42799677571351    4.87826630108183    1.08100521460796
H         8.34357725355412    5.32805303013132    1.48178022597988
H         6.80462110439719    5.67996089532827    0.66561538530216
O         6.80992736798793    4.25291408028240    2.18855827924263
C         5.47316983629125    3.94529914949096    2.07377012775229
C         4.50611291851004    4.91945518761248    1.84595477269725
H         4.79881269464313    5.94921827697180    1.69746944410535
C         3.16673839850067    4.57877232957483    1.85491637985978
H         2.42266346388555    5.34753707946401    1.70144574141344
C         2.75817544900048    3.27001008015948    2.08539319163854
C         3.73197047946782    2.29439397676439    2.28413653914146
H         3.44287826121488    1.25741659566183    2.47755702791529
C         5.07448975266783    2.62851538166746    2.27869616525055
H         5.82680758075860    1.87736985328849    2.46077504454345
C         1.28732244027574    2.94204861126584    2.15220321226055
H         0.90700505348957    3.20429561963973    3.15184928585507
H         0.74183890419273    3.54353382390175    1.41178683787156
N         1.03816546181131    1.53595124631010    1.93502428796662
O        -0.03340298919610    1.32146825898418    3.95505095128679
C         0.44052534893459    0.85579587367476    2.92426731201565
N         2.67740586516866    1.67118165572327   -0.60970594226914
C         3.39644687827411    2.46160938827412   -1.03605982400949
C         4.27209329061492    3.45852194664061   -1.56497291885965
H         4.25278343986266    4.33238400416302   -0.91320828226053
H         3.95403698387510    3.74273745267389   -2.56763818835481
H         5.28776505611199    3.06312160195250   -1.60491229600028

