25
CSD_code = JIPHEY | q = 0 | S = 0 | Stoichiometry = C9H8MnNO4S2 | MND = 6
Mn        0.10073126794269    1.08330170223277    3.37330625246872
S        -2.19268264848556    0.39804213801493    4.15263736498982
S        -0.82682022257713    2.90058467198169    4.84839525790686
C        -2.19710656318150    1.88940454666114    4.98652875688387
O         0.57126896547206   -1.33863184563311    1.77147094502547
C        -0.81352973484881    1.95379557826764    2.08735436526098
N        -3.23280886585788    2.25164676471808    5.71831918157119
O        -1.47989055355740    2.52757362229528    1.36481714213033
O         2.65288102106759    2.45455776100099    2.86621583809204
O         0.82712818233294   -0.06572941604760    5.97521308515968
C         1.66739930599703    1.90120240146776    3.04792465668466
C        -4.43448999892050    1.45264403673099    5.86698756630251
H        -4.21994997733354    0.58500108409881    6.50074838322298
H        -4.76761226413010    1.08648725993480    4.89305680685337
C         0.40896423282094   -0.38893353217976    2.38989605300210
C         0.61394884236096    0.35024687135126    4.93754570259370
C        -5.42169591128612    2.40749769855011    6.53015517931544
H        -5.94014365886282    2.99613564629808    5.77300611065988
H        -6.16052438934400    1.88141066281339    7.12968301667844
C        -3.29773735682571    3.49385954240841    6.46440503620373
H        -3.43035245828512    4.33076178340684    5.76955774812397
H        -2.36673475377290    3.65399172280336    7.01313229528045
C        -4.51370182309382    3.30890707965551    7.36609915494702
H        -4.98095620238161    4.25606079903541    7.62322565602041
H        -4.22418443524121    2.79998142014467    8.28581844461622

