46
CSD_code = JIPMED | q = 0 | S = 0 | Stoichiometry = C24H18AuCl2P | MND = 4
Cl        2.73641325608931    3.76616473388517    9.48158136584953
Cl        4.10031941356227    0.29660031703721    9.36660575400420
C         0.12551913205884    3.66793292592314   11.30057908548178
C        -0.59916840262360    4.69898203580179   11.89187065361864
H        -0.15573230804581    5.29018279147492   12.68174108407118
C        -1.88091939941360    4.96795282282052   11.44817525923534
H        -2.44498762426717    5.77274120565065   11.89633196596453
C        -2.43909603758337    4.21193350315505   10.42941495951759
H        -3.43810103883145    4.43140303004628   10.08341666535565
C        -0.43798641058647    2.89969746506777   10.28764321498914
H         0.14067187186729    2.10319128625086    9.83716372038638
C        -1.71968219924004    3.17803117688373    9.85106403307468
H        -2.15623987649478    2.59101748383165    9.05712736025116
Au        2.92955445013555    1.72358301223361   10.71114914350574
P         1.76354218195420    3.23490892008413   11.90713507109100
C         1.43271740974064    2.24116089264481   13.39687917843975
C         1.01815752004560    0.47690453264732   15.53077048186140
C         4.13705846445334    5.73823294317412   14.00380347290792
H         4.81626561699097    5.66159011379558   14.83990672275763
C         1.95269937716558    0.93036785428513   13.29496379412180
C         1.72326021630988    0.08392648058403   14.38370391084643
C         0.97715554938247   -0.68983578330732   16.47602840858438
H        -0.05385564152851   -0.97277238303653   16.69498901602380
H         1.45263549343476   -0.43369179931628   17.42449346431644
C         3.12641386889965   -0.89082530078029   12.26187628631162
H         3.68326823558001   -1.29045139417292   11.42853021081988
C         0.52382639617407    1.75435944505080   15.60152185332762
H        -0.02422548202730    2.10234872940081   16.46447042325963
C         2.68291452696620    0.40358867441142   12.20847146577452
C         2.57560363328942    4.72616920038615   12.49108904521204
C         2.88176618061972   -1.73063900030846   13.37366936748121
H         3.25896641561482   -2.74193493238418   13.35410563865788
C         1.73848740833891   -1.83250423023634   15.75062555037204
H         2.59806888320674   -2.17036161158265   16.33151940933160
H         1.09398505432238   -2.69783346235780   15.58762263566879
C         0.73660948961847    2.63097871021826   14.52199102157459
H         0.34626191286052    3.63779645940813   14.58327330905958
C         3.10053456970175    7.05213057047247   12.27586067873706
H         2.97558158566759    7.99797241367282   11.77019760305572
C         2.17702674194409   -1.24314014220833   14.43878993617670
C         3.96072138951480    6.95250357250454   13.35916495216952
H         4.50219150935337    7.82348361867489   13.69735557981664
C         3.44822172428704    4.62002322290428   13.57179522321227
H         3.58098259245091    3.66375683564618   14.06184768590277
C         2.40961057617332    5.94122732613670   11.83082805276928
H         1.75908177286795    5.99834573354053   10.96995628505646

