87
CSD_code = JIPMIH | q = 1 | S = 0 | Stoichiometry = C48H36AuP2(1+) | MND = 4
Au        7.79330815917291    6.97290970525055   10.99883600729942
P         7.36254069669492    9.02159218431132   11.97428093842346
P         8.25193260258119    4.92420486231451   10.03651221026640
C         9.01518239689971    6.85153073724131    8.32360725139071
C         6.77321128379228    8.50224146345091   13.59500946806690
C         5.94702505856326    8.81480169730247   15.86018590111513
H         5.69549578548686    9.49495352321006   16.65960017904272
C         7.03094150882566    6.16482068400187   12.71642060149054
C         5.80464260986629    7.45655528297356   15.99942823410384
C        10.00243466881918    6.49322102551888    6.09058612292159
C         6.16632235374994    6.62335389225488   14.93056392571097
C         9.53792716642197    7.32688876431126    7.11850352634101
C         6.00275969998264    5.25917872102599   15.21658422644491
C         8.55233175685776    7.78354414467867    9.28173098324264
C         9.40900147053502    4.61641268236214    7.45436844320372
H         9.34632656398158    3.54365646710047    7.57110938878067
C         8.64550076271227    9.11512125856960    8.94649514882204
H         8.28466870338381    9.85773654931217    9.64895355548345
C         9.17692041302301    9.59153626203279    7.72802505550181
H         9.20972478411497   10.65624241913633    7.55035764505611
C         6.43394368066987    9.33003327024319   14.64709544150370
H         6.55337569506878   10.40019009355663   14.54987327771488
C         8.96411901853564    5.44537631086330    8.46530847293798
C         9.63128624678536    8.69157637640176    6.80434454448792
C         5.32931000646738    6.59034640020171   17.12827307445736
H         4.29772590169501    6.83190983373998   17.38945526637115
H         5.93498505858232    6.75250781069225   18.02130584942014
C         6.65889142890534    7.09760682384144   13.71252169643274
C         8.71387033517039   10.16960667146162   12.30613337382602
C        10.48060601386706    7.36060224884794    4.96386579969190
H         9.93441023410795    7.13776384252976    4.04590245365482
H        11.53779190164664    7.18012342417873    4.76253016599443
C         6.86434634063816    4.83320218795529   13.02192130717790
H         7.14393874732937    4.08903780405738   12.28514698202431
C         9.93658545601564    5.13244702087931    6.25876273392421
H        10.27384261457544    4.45070878200319    5.49297930255005
C         6.87063138206500    3.85250132375311    9.58927598681276
C         9.50993472388316    3.93512460457208   10.86897963833717
C         6.00241411510529    9.93290453196605   11.21636094283749
C        10.23275591792640    8.81899236855060    5.43447540151229
H        11.16217856695003    9.38936304330704    5.47106342788761
H         9.55488404068106    9.34530430335360    4.76059025774151
C         5.45813926684529    5.13266388243667   16.61010510692011
H         6.12915624821435    4.54413597279008   17.23772184665767
H         4.49189702222793    4.62580110977241   16.60299704395155
C        10.16512643007016    4.47394827153315   11.97196914446278
H         9.87160843468401    5.44905271882739   12.34107065103365
C        11.17153950673671    3.75610970133373   12.59115539128493
H        11.67669482850884    4.16973582207239   13.45071494293934
C         9.68880422627270    9.72048040925813   13.19658033166853
H         9.57887021911009    8.74505905866005   13.65512978857494
C        10.77285170140136   10.52361332470948   13.49123997335201
H        11.52635406766322   10.18042885985309   14.18375461304660
C         5.32532371377582    9.36394383668770   10.14238029242379
H         5.65928151711290    8.41258582856636    9.74617272519180
C         4.24363654724235   10.02188489557816    9.58647683127501
H         3.72012681865851    9.58454792004458    8.74994763224107
C         9.87625964790635    2.68382322570581   10.37653573823760
H         9.37082176362885    2.26807322830662    9.51599040820607
C         6.35422990827989    4.35819857035277   14.24997628634991
H         6.25832831826781    3.29329008758219   14.40174128250093
C         5.58426209557816   11.15336737137853   11.74365812662389
H         6.10663737941586   11.59002852328665   12.58341678063200
C        10.88478711905517    1.97500027853190   11.00212703632019
H        11.16862009897362    1.00361022806083   10.62639070974956
C        11.52941645509700    2.50749948929891   12.10818129442384
H        12.31342562285156    1.94709726417316   12.59378601356495
C         3.83361828931649   11.24022541560994   10.10381829483343
H         2.99017665956246   11.75332119783461    9.66809179363604
C         4.50148137451318   11.80261206229331   11.18111949870984
H         4.17691885384019   12.75009499827530   11.58386467719377
C         5.99024983985445    4.36418171787716    8.63602664931976
H         6.18948979621012    5.33446989786527    8.19702203113407
C         8.83870818263444   11.41542315650162   11.69837451001558
H         8.08860735512843   11.76507448558791   11.00196769314968
C         4.88532595654382    3.62867284754485    8.25527251260399
H         4.20599133903747    4.02021469325433    7.51340329049146
C        10.89079013818095   11.77077561375530   12.89575032974447
H        11.73681598402339   12.39926569314235   13.12773451201758
C         4.65202662329393    2.38632508687137    8.82630292350898
H         3.79036769119633    1.81006609548727    8.52632677627417
C         6.62878341230703    2.61231705915481   10.17277356655292
H         7.30267264492041    2.21439589067367   10.91929473108298
C         5.52083520673817    1.88223019464192    9.78065445912546
H         5.33492264722148    0.91573206635337   10.22409561485388
C         9.92722479579490   12.21294948029100   12.00350085292108
H        10.02316837997504   13.18404106487478   11.54186108119435

