45
CSD_code = JIPTIO | q = 0 | S = 0 | Stoichiometry = C17H19AgN4O4 | MND = 5
Ag       -1.74103986298266   11.44088119703905    8.97178634152150
O        -1.47928515769342    9.62807336063413    4.99789112871138
O         0.01856382282085   12.49749140375141   10.19651400490928
O        -1.51830791703207   11.68917469702122   11.43155991489005
O        -0.12274964783978   13.07827143497543   12.24579696210161
N        -1.54968193096979   11.12604495439561    6.65412672295554
N        -3.14702546248754   13.11609268472504    9.33537078189061
N        -0.52607649631389   12.42758541521759   11.31040856609836
N        -2.01411267289831    9.12904878972548    8.50414196819932
C        -1.78289546141151    8.80149729186156    7.24574495845056
C        -1.71592090564455    7.46738291446843    6.79405862828690
H        -1.52524241225641    7.27882543308086    5.74988268195871
C        -1.89952086397973    6.45607483608533    7.69515876687405
H        -1.86217684204776    5.42039517543420    7.38891885688992
C        -2.14239533372428    6.77131110313441    9.04881040291475
C        -2.18767361041065    8.14865706653893    9.41222710724270
C        -2.42472690234197    8.50071288819898   10.75678196382098
H        -2.43853111931927    9.55249361950736   11.01279288961941
C        -2.60727140561477    7.52599938685364   11.69833445023339
H        -2.78062064828630    7.79702890025986   12.72856677030001
C        -2.56700432487698    6.16759327640323   11.34208932589943
H        -2.71422761515104    5.41569000148777   12.10309118987703
C        -2.33901638920847    5.79595724479548   10.04508856552071
H        -2.30175871371342    4.75305276511982    9.76483453655452
C        -1.59951775054984    9.90109087590396    6.31086870340800
C        -1.38293349030377   11.93717060672819    5.46831728559613
H        -2.28486969655048   12.55052728941162    5.35289628726444
C        -1.26714488874105   10.87633670805302    4.34143706509350
H        -2.02039327686175   10.98989579686184    3.55958059816997
H        -0.27122312494120   10.85571887463018    3.88819441109837
C        -0.32488120459785   13.78689563347615    6.79719435985150
H         0.53388049043544   14.44802296943818    6.87711863930955
H        -0.38799170283754   13.19992104205244    7.71817371666166
H        -1.22381657356793   14.39288296838946    6.70641081111308
C        -0.17383158614072   12.87809092387335    5.58064866358533
H         0.72545278016421   12.26503142848915    5.70581692259587
C        -3.19722825445089   13.71519114770591   10.31649110112117
C        -3.24840731891326   14.46597250279718   11.53025102876007
H        -2.98547102303732   13.80662721580024   12.35810584965023
H        -4.24641008273827   14.87417204429883   11.68438237877455
H        -2.51918373279786   15.27457801706230   11.48474119329794
C        -0.04216490174457   13.71873687967039    4.31194674218047
H         0.82053518362919   14.37495658557944    4.39261788327053
H        -0.92829601704997   14.33483934264205    4.17555199679289
H         0.08359404499709   13.09880530642072    3.42737687666442

