75
CSD_code = JIPVUZ | q = 0 | S = 0 | Stoichiometry = C26H44Si4Ti | MND = 12
Ti        5.07770241460147   22.72707426239571    5.43605571558432
Si        3.71984373710099   27.62375531826590    5.32820375983607
Si        3.69643473043804   21.41763650510966    0.72220566442824
Si        7.35872202248636   24.86673022274978    3.28884313627365
Si        1.31557487442279   22.55136903074484    4.96579355302419
C         4.55225662624615   24.66856726259337    5.33014408980244
C         4.24035893358546   25.84546378757889    5.34542823058950
C         3.82964530849081   28.28751486284773    3.54232031025317
H         3.52780052043862   29.32959470943366    3.48471985054838
H         3.18696548738919   27.72026908516896    2.87587239141652
H         4.84285471543705   28.21356410240940    3.15952657777916
C         4.86108381311454   28.64274875075811    6.47447692334325
H         5.87944508016272   28.67317699488950    6.09861331287078
H         4.89353267768119   28.21984024991024    7.47445179756023
H         4.51550161607667   29.66892486892846    6.56408525017474
C         1.92242982223645   27.76008376267403    5.96607625651693
H         1.59815944478391   28.79576410574337    6.01860083309031
H         1.82418065150321   27.33564707425296    6.96113179505490
H         1.22987059560348   27.23283705741918    5.31661611981702
C         4.49079662830942   22.24902106277184    3.56908405041422
C         4.17270712852859   21.89533044837323    2.44820073718309
C         2.24572567563726   22.51656136273428    0.14766010204595
H         1.93683972081868   22.27154584777756   -0.86475772910908
H         2.52264665079009   23.56633956213045    0.16332853758984
H         1.38333118637031   22.39692245162571    0.79613307693147
C         3.17624106158461   19.57849842158297    0.67945800887197
H         2.97955812105396   19.24801564594006   -0.33673183828972
H         2.27414804993651   19.40569315039042    1.25885541177201
H         3.95444789139428   18.93940948700887    1.08661407319689
C         5.19688998953657   21.66346662227406   -0.43722375455042
H         5.48911386202516   22.70806815865678   -0.49093949251758
H         4.97436224050194   21.33334759216767   -1.44820126650857
H         6.05916924399475   21.10050861999447   -0.09154766616758
C         7.15580787526636   23.66832310673138    5.99888483247536
C         7.16962983292546   22.39404302629620    6.58648584962655
C         7.11896427482259   21.43593382004887    5.55449269261889
C         7.10796709758479   22.12306172277562    4.32844773162911
C         7.12827412367552   23.51825894632762    4.58426033265328
H         7.28419415322681   24.60884322120728    6.52139927174886
H         7.31505535042967   22.18128146389734    7.63840429852315
H         7.22004639018784   20.36361294425346    5.67446304608002
H         7.19526940143205   21.66905089523022    3.34916769827133
C         8.89889500166296   24.39956986447857    2.24679825791727
H         9.12686825675009   25.17668856048897    1.52472564089998
H         8.73679776769733   23.47881757925445    1.69533952471577
H         9.77873729916411   24.25982061997662    2.86738123915077
C         7.68421935713632   26.52248024039406    4.18649456017029
H         7.79404290602732   27.33397506710780    3.47465480472151
H         8.59141612592252   26.48734429326920    4.78199503018863
H         6.85574682799699   26.76660450319407    4.84399986893432
C         5.84581750652845   25.01915123998978    2.13518127777586
H         5.67197099131643   24.08939864650866    1.60179842704819
H         5.98292491892572   25.80792481542554    1.40188528369400
H         4.94806232275106   25.23652458166556    2.70830573963513
C         3.61599737177126   20.96980622392054    5.97822126200029
C         4.53443418148005   21.01299354691170    7.03842875216226
C         4.37994535547493   22.24720511840654    7.70075342324700
C         3.34149258017159   22.95004883833647    7.06611598413351
C         2.85272611614147   22.17057606764535    5.98640523153865
H         3.42058490508993   20.11397927655158    5.34307793449019
H         5.16561072737635   20.19592288235496    7.36553701244490
H         4.86837742480284   22.54198487285619    8.62216709162318
H         2.90102885600253   23.87619293717318    7.41386031265646
C         1.55628783742960   24.07281418004997    3.83877112102888
H         2.39422905233508   23.92009728735644    3.16342805621575
H         1.77291395378149   24.95891984806087    4.42774777148523
H         0.66970118930522   24.27141424817190    3.24445722262185
C         0.88586984751682   21.00933836802944    3.92125814314900
H         0.01212699862225   21.19043122075085    3.30392964136637
H         0.67046076160189   20.14680289639823    4.54455536999350
H         1.71109891570321   20.75503523415986    3.26350364605345
C        -0.11447112878204   22.90105118397192    6.19413102704196
H        -1.04942108329960   23.05287518212486    5.66482931145521
H         0.07847885909702   23.79488143472847    6.77894137385719
H        -0.26022102530362   22.07942954611065    6.88871708423643

