106
CSD_code = JIQKAW | q = 0 | S = 0 | Stoichiometry = C40H56CuN3O6 | MND = 5
Cu       10.57597905119368    0.24554687186091   13.00652076122032
O         9.29596109989959    1.35258319371040   12.62068189216922
C         8.62864209026475    1.69312296388079   13.71344624907169
C         7.54633168134394    2.59241398696872   13.73536828960982
C         7.03868764938566    3.22762350870738   12.45361740143367
C         5.86064483737091    4.17433781236898   12.69639966893114
H         6.14580865075652    4.99407596768666   13.35188929527942
H         5.01655024032546    3.64555480557982   13.13269147864109
H         5.53850307218546    4.59735967253736   11.74710615912810
C         8.17777477310453    4.01794687948139   11.79854390790415
H         8.99502191226521    3.34752394629882   11.55305052237316
H         8.54218470862868    4.78795682120395   12.47600666587667
H         7.82783522243408    4.49307100077585   10.88431302828528
C         6.58576366389808    2.10882469826484   11.50594551319223
H         7.41774980879664    1.44533396432365   11.28890601155299
H         6.22289926561187    2.53188111969361   10.57147555768541
H         5.78509721484285    1.52855471331269   11.96061559194628
C         6.99273423859686    2.81562581516011   14.98155641864369
H         6.16693245689449    3.50013178165482   15.08549428405227
C         7.44819264086821    2.18097226050884   16.13822643191099
H         6.94652869807434    2.41626465646514   17.06261624869371
C         8.48988831016054    1.27356912513814   16.13328664562249
C         8.98385619811184    0.53485514576439   17.36358527459623
C        10.46643360163847    0.86594990671336   17.57293365603372
H        11.04659700429650    0.54133962099636   16.71447974302437
H        10.84102519435696    0.35543871922860   18.45932957322831
H        10.58816382391970    1.94166255695401   17.69520694426683
C         8.21307634838363    0.92272655064876   18.62836365780356
H         8.32033461012028    1.98388332680405   18.84269388031190
H         8.60539148107035    0.36374078248462   19.47600796424586
H         7.15690484669375    0.68472039818938   18.52976442180176
C         8.82364855049678   -0.97251206830943   17.12838239686812
H         9.40204680712881   -1.27666532475118   16.26109085875132
H         7.77773120618609   -1.21832883755035   16.95582795187840
H         9.17445514455911   -1.52889824890244   17.99542118775622
C         9.08609031479082    1.05102970367366   14.87866492223923
O        10.10100234519307    0.22523561974241   14.67203351125706
O        11.78167013085296   -0.94679472922690   13.36768799811952
C        12.49494299871504   -1.22377185656121   12.29288541619339
C        13.57794383235937   -2.12521647041167   12.26594605022493
C        14.00915900026521   -2.85053367499907   13.52668144564680
C        12.83382118809503   -3.70135695868024   14.02633730364334
H        12.54778090129843   -4.43360762309605   13.27330689225412
H        11.97878156949189   -3.06670015233196   14.23941874548138
H        13.11290312713310   -4.22807054854277   14.93657113695483
C        15.21340975159315   -3.76541797754791   13.29029729932539
H        16.07498903226139   -3.19647754357017   12.94869987625811
H        14.98271577346514   -4.53780046793882   12.56002277374919
H        15.48130965738053   -4.25460442407982   14.22453438544487
C        14.37983807668421   -1.81329824377554   14.59352898643100
H        15.18048147067089   -1.16806184825139   14.23874045301921
H        14.71141789225915   -2.30914424899820   15.50300069628280
H        13.51970984946925   -1.19676178164487   14.83266880805597
C        14.18111643992039   -2.28044111200256   11.03401281840580
H        15.02014454231492   -2.94895621331500   10.92973440455380
C        13.75659200167672   -1.60188343226390    9.88693010078170
H        14.29640238095237   -1.78942715343689    8.97297886776102
C        12.69465178791293   -0.72017820784985    9.88745474838932
C        12.20537906834150    0.03446291896584    8.66535882874661
C        12.29645980363651    1.53952183356628    8.94972450652654
H        11.68565401280186    1.79056922961078    9.81145755736637
H        11.94254495987927    2.10607587857079    8.09071461287636
H        13.32632022933555    1.82425532640226    9.15693500019034
C        13.02887708657560   -0.28134523255521    7.41455374541811
H        12.97105662778491   -1.33813973956717    7.16441081845183
H        14.07138622401908   -0.00373544420623    7.55203219540519
H        12.63662209961691    0.28604940550773    6.57306958267361
C        10.74315701591378   -0.35000971934042    8.40339716201973
H        10.66027699475075   -1.41946364813912    8.21884065044636
H        10.36437960570038    0.18390605216533    7.53424822105528
H        10.13069479828422   -0.09561593838959    9.26326545790785
C        12.06447947689264   -0.54290059798822   11.13479656405682
O        11.02756965667804    0.24791184251679   11.33664893509476
O        14.25522082872846    1.05416777840466   16.85085882443901
N        13.86272297615488    2.06641462149753   17.48008152050398
C        14.37646552876341    2.33400812418588   18.84238014077079
C        14.26604107074650    1.05640067015027   19.66768958821647
H        13.23861840547318    0.71762766396230   19.75205460612853
H        14.67666005212251    1.21232614779739   20.66091206150818
H        14.83336833708416    0.27510622015052   19.16731501148400
C        15.85849430424711    2.68349322043066   18.66239360307097
H        16.35314832671831    1.83704745883052   18.19043999208129
H        16.33036370243110    2.87613885050680   19.62094452104531
H        15.98598785278848    3.54886660495733   18.01605946660291
C        13.49472889783413    3.51400929310853   19.29941728936017
C        14.23179884301128    4.69159996787883   19.93155572717993
H        15.01881790566453    5.07204578446170   19.28801651868413
H        14.65878342694512    4.39882353265564   20.88616660689825
H        13.51799196625671    5.49569119117252   20.09511783122374
C        12.32523035819448    3.12171376433307   20.20912263918495
H        11.68176875389084    3.99072294880008   20.33137990356616
H        12.68474566655988    2.81220610681140   21.18569494079488
H        11.73179999946789    2.32348093046339   19.77199141594074
N        12.89202588196177    3.96209397897628   18.02430973878557
O        12.22380288955558    5.02826196838178   17.98646929200997
C        13.08177422213420    3.06645293019114   17.04143280120015
C        12.53793144239196    3.17304656389488   15.69461733739612
C        12.59626131491443    2.09747952374188   14.79854668184570
H        13.03008162539567    1.15056611711947   15.08413446174094
N        12.14031466544573    2.16385997101925   13.56065177912768
C        11.62073876711178    3.30524989777515   13.12747837311968
H        11.29731396276780    3.30773986518349   12.09587666194917
C        11.48878729288341    4.42095520078078   13.93685127307804
H        11.04339659723004    5.32653999689784   13.55620038995051
C        11.94375549749155    4.35574405810032   15.24070825557444
H        11.84865080887623    5.20442813150553   15.89939373310759

