96
CSD_code = JIQLIE | q = 0 | S = 0 | Stoichiometry = C42H36BMoN9O7 | MND = 6
H         4.30846601918695    5.25447509884432    1.27175955636632
H         6.55853747721841    4.99435628633989    2.78559589811401
H         1.64012749076496    2.60343741481449    3.52702408194699
H        -0.50045425239850    1.87346180630748    2.61779397006117
H         0.97927344425042    2.46542627215533   -1.34838449730547
H         3.16445949244465    3.16208463335834   -0.42188061620515
H        -2.50054513290804    2.01300087738697    1.39671056312072
H        -1.79340093469858    0.37238199799872    1.33325688860619
H        -2.88070207806980    0.92943375854719    0.03614196887338
H         9.40343101603739   -0.77091219569208    2.09013081466921
H         9.39637523800907    1.52199097153005    3.61004565962192
H         5.56400242099294   -0.21313784899114    0.10592280232538
H         4.48854676238455   -1.99212248108119   -1.16167887845334
H         6.55919516052414   -4.91380024617782    1.17495427393158
H         7.61041863945242   -3.10310076655109    2.49400910963921
H         4.35166907626975   -3.88388764146830   -2.55080595296061
H         3.07936709807465   -3.87191108732537   -1.29620466914504
H         3.60646825557026   -5.41207889277327   -2.02204391781628
H         5.19929981662469    1.18459852170907    8.48770095826611
H         6.84362615887441    2.85389266494927    7.09944416236488
H         2.25101953004124    0.65733586106166    7.49063580736916
H         0.62902907188978   -1.13177528706509    7.81830711975422
H         3.40809640081017   -3.95032606717794    6.20439019918481
H         5.05980495328694   -2.13291174148449    5.89110218062537
H        -0.78303111002549   -2.84924750290097    7.01288284479755
H        -0.19683974318159   -3.15570396852298    8.67390718082660
H        -0.69185558562947   -4.51502429171171    7.63645928839100
H         8.67816530026162    6.30791774204765    6.05198736395309
H         6.40352134027092    4.90578423840496    5.56600945220532
H        11.00377719926053    6.47191662550365    6.30678841973054
H        13.42782572116335    6.87509964942427    6.16292149798853
H        13.80889336568818    3.61283954720328    3.43039081611505
H        11.40040447900590    3.22329157681776    3.57064278705106
H        15.72439987854842    4.89794323849356    2.93988671695849
H        15.99103058809301    3.78279704626348    4.31065544873163
H        16.97287062872205    5.26045296046410    4.15681806042696
Mo        4.34610645460686    0.36724760936187    3.30094280970159
B         6.74315103174671    2.49267764331240    4.21337871970881
C         2.53558743597441    0.18956967873751    3.99083377446135
O         1.44740673307453   -0.06506878440722    4.26179703582903
C         4.31740835895252   -1.58070793139785    3.39627600827098
O         4.13850451699164   -2.70686748438317    3.26596876562171
N         3.57718425903803    0.08464071800939    1.75306484637262
O         2.96562068423944   -0.16845928795339    0.77936074509422
N         5.66423969825042    3.16146171985321    3.34335311721317
N         4.53230582669676    2.51398369240844    3.03380681553237
C         3.85985282911939    3.27473263754348    2.17136456036573
C         4.58848136575245    4.44601799874247    1.91483121900531
C         5.72486823436140    4.32964477091786    2.67982830271081
C         2.56419393188119    2.88577028399671    1.61776731846252
C         1.51137096452439    2.53710445362114    2.45531028606062
C         0.29049020666141    2.14571973200258    1.93748536779535
C         0.10256373021567    2.10176513498987    0.55940790627183
C         1.14550576824838    2.49156334773863   -0.28332350273732
C         2.35789382206003    2.88040007669338    0.23893294954073
C        -2.10412117909139    1.23490517924737    0.73579377949120
O        -1.04649843764575    1.71886337105349   -0.05674116142322
N         7.32094186513718    1.34000622432500    3.39557098180369
N         6.47290872985697    0.48652526350584    2.79275977507323
C         7.21144809701321   -0.45234921498513    2.20272684920739
C         8.56957926882554   -0.19832872248220    2.44010924294309
C         8.59010323171327    0.94828414905310    3.20002368009131
C         6.61732819752632   -1.53449950166573    1.42169772780365
C         5.75302946126978   -1.24508307279008    0.37201617394021
C         5.16406488246278   -2.25618994022014   -0.36433484812663
C         5.44031786724851   -3.58582118802269   -0.06077345411650
C         6.34328817798783   -3.87849007117149    0.96401983712786
C         6.92627332978434   -2.86653721748222    1.69230250410557
C         3.93389368632801   -4.42600482322600   -1.69609568731959
O         4.90691473622943   -4.65654391303282   -0.70502354853716
N         6.03363948694542    1.84919187029119    5.42643929653032
N         5.15534780593086    0.85238230823638    5.23944317881516
C         4.71737481300635    0.47661053144075    6.44108415110836
C         5.33681592971653    1.25354523287777    7.42850754769354
C         6.17021857288912    2.10348837703004    6.73703942737685
C         3.74779970169466   -0.60533798232995    6.62973831930625
C         2.50842277110247   -0.35160074559158    7.20184506832873
C         1.58885925853634   -1.36812274668274    7.38737068338142
C         1.90808281235318   -2.66969613240075    7.01412721094577
C         3.16892853103939   -2.93397582584460    6.47294206936259
C         4.07528181570598   -1.91581667223799    6.28254008490929
C        -0.21463308816136   -3.53639296921296    7.64736454047639
O         1.08540146626598   -3.74148864334861    7.14868632240876
N         7.74153008831134    3.52532921209295    4.66630720381297
N         9.06210000873284    3.46461576993719    4.46996376813510
C         9.59672459191457    4.55868539982315    4.99780572554881
C         8.57838957275345    5.36219819471959    5.56123272174981
C         7.42157734893551    4.66986243734797    5.32435027430140
C        11.02632959748476    4.81257888620549    4.94103347710664
C        11.61256125065081    5.84714940140435    5.67149137839959
C        12.96771553265913    6.07795154634945    5.60018626947180
C        13.78361944356682    5.28162423088227    4.79455064107823
C        13.20848058943342    4.24683163835141    4.06414403429680
C        11.84740992761371    4.02182125452145    4.14186706022774
C        15.98306704601265    4.83346520777919    4.00205939547363
O        15.10967417029608    5.59888891611847    4.79456389146325

