36
CSD_code = JIQNAY | q = 0 | S = 0 | Stoichiometry = C12H17NO2PReS2 | MND = 5
Re        4.01844478521133   12.68435593443222    1.49196457091111
N         3.08279873662290   12.29837795618779   -0.22377641063487
O         3.61921552117320   14.23745253505937    1.96759787493410
O         1.36651324225379   11.41107173911225   -1.43436886050076
P         5.49512805237575   12.15656348101802    3.31243413100163
S         5.87434378398989   12.29206744493740    0.14142323155102
S         2.59054013973096   11.02955557898026    2.25132037021763
C         5.11416559274645   12.20913391202381   -1.52532991755462
C         3.71493354883750   12.79228855547665   -1.43667230656016
C         1.93637627581788   11.60735674744802   -0.37416466221717
C         1.36555058353715   11.04901390152578    0.92148548736850
C         6.97547085872347   13.20136615669112    3.37513558609787
C         8.22239170289695   12.74021601742411    3.77815669484222
C         9.29516853128297   13.61399824925496    3.82062699804937
C         9.12930787808692   14.94210415533717    3.46538593689521
C         7.88663629443649   15.40340185285116    3.05946384696154
C         6.81279757986662   14.53535357203980    3.00947987747708
C         6.04971073520378   10.42436808971474    3.39787592967607
C         4.69549667282623   12.43084268960760    4.92895396051874
H         5.75298977987790   12.76650029086072   -2.20777925399935
H         5.09473898614400   11.15613005528863   -1.80976851457199
H         3.76795366046301   13.88725503414597   -1.38319056018137
H         3.10849799081841   12.49750934942241   -2.30017961084855
H         1.00752664846122   10.03151190498931    0.76212178842286
H         0.53002762561410   11.67236638252464    1.24652210916264
H         8.36356906789353   11.70575445235654    4.05275951309096
H        10.26568548130812   13.25472360788889    4.12958738437594
H         9.97177164833012   15.61670546302128    3.49757591584136
H         7.75912521051695   16.43676458273732    2.77461317122098
H         5.83868843201427   14.87190867982097    2.67156813259656
H         5.16692763720212    9.78724141957804    3.33841271913412
H         6.56722990744827   10.23977734974362    4.33822468526556
H         6.70503081955270   10.21273533543666    2.55391621514779
H         3.82468202990607   11.77965414590066    4.99691007393076
H         4.36739790176043   13.46824153367932    4.98053073958837
H         5.39566665706634   12.21903184348169    5.73668315279073

