39
CSD_code = JIQPOR | q = 0 | S = 0 | Stoichiometry = C12H19ClN2O2PtS2 | MND = 4
Pt        1.32718846403956    2.91240898268461    3.35062721597571
Cl       -0.54670399655680    4.05224680025522    2.63108288853259
C         5.10466922963623    2.95917007329776    6.44784919680654
C         3.90433188473188    3.49119400709407    5.81901145478149
C         3.87639874794191    2.47758453517400    4.84043231258846
C         5.16245621615999    1.93088649216577    5.34995439770498
C         2.12209802959506    5.19072483540992    5.39094950445408
H         2.20203586134137    4.90738153054255    4.32561463568846
H         2.15859785107337    6.28267119767550    5.46371946492743
C         0.76033652958083    4.71211354745952    5.90709107726229
H        -0.04031771656819    5.20060520679647    5.35234062059430
H         0.66179720830457    4.89742775377592    6.97660464051952
C        -1.21138544950266    2.71789777950966    5.55849071800450
H        -1.59053325782885    3.40439271712546    4.80140146442415
H        -1.36372886412938    1.69284826402543    5.21980138623832
C        -1.84616252615250    2.94130936571936    6.91655134183400
H        -1.40000599468258    2.28781685247854    7.66272991460683
H        -2.90993385749026    2.72286535643078    6.85853047563841
H        -1.72923955075148    3.97281280792070    7.23971564329566
C         3.47690813826619    1.01490768704596    3.00106566208085
H         2.71196096530972    0.22860188205922    2.99849249510432
H         4.42655256924272    0.58310958637503    3.33513208695218
C         3.62762795551379    1.57825189014104    1.58878584514738
H         3.71654374929695    0.78862051797859    0.84477530810056
H         4.48632820146722    2.24431998128630    1.52803466571793
C         2.84472006200376    4.23139660759472    0.89546890683468
H         1.99421057637116    4.91264467842968    0.94927359807010
H         3.53675073475678    4.44281836035220    1.71213813677198
C         3.52545842678218    4.32099019458393   -0.45645862927964
H         4.35897047871798    3.62516522270596   -0.52433103339245
H         3.90730036061109    5.32777870360584   -0.60988705434968
H         2.81954245687940    4.09410727657095   -1.25143981067741
N         3.24256504609804    4.64360488706501    6.09916341434491
H         3.48737650457183    5.05602164198511    6.98656005246425
N         3.06455817720304    2.08070408595406    3.88476414346626
O         5.73011928942479    3.23150853970003    7.45373838583718
O         5.92952255475236    1.08693735025387    4.93539826936705
S         0.60632517671176    2.90960520044500    5.63065368001869
S         2.12785976727691    2.56354760032864    1.16257352354370

