87
CSD_code = JIQWEM | q = 0 | S = 0 | Stoichiometry = C43H35AgO5P2S | MND = 4
S        10.74775922921121    6.33983741811275   10.41440038773023
Ag       10.87651580257520    9.02264872816665   11.16589709748914
P        13.41628936835044    8.88384602362275   11.93440746562956
P         9.99344231593010   11.19090737800509   11.87694657104826
O        11.60491307031278    6.84521303697547   11.48463773929524
O        10.07774342305499    5.10835830135085   10.73044521405172
O         9.86138754648949    7.37988961045131    9.86714529057157
O        11.70594307896115    9.17215182776974    8.92954077216686
O        10.16427866690293    8.56677299831201    7.46434097379919
H         9.77294108022689    7.76189048572623    7.10288332299698
C        13.32218336048635    8.19648082150169   13.62209244687899
C        12.08886028778876    8.14542853326385   14.25789234975339
H        11.20110586308369    8.46887577898480   13.71423394630538
C        11.98935518145957    7.67506471859280   15.55527983922940
H        11.02605824709645    7.63424710717371   16.04287253027332
C        13.12592843997476    7.25616991812506   16.22730824685349
H        13.05032569639995    6.88412491464845   17.23880782078248
C        14.36206166600566    7.31678513684246   15.60303484079859
H        15.24918618007737    6.99527149206151   16.12989575330452
C        14.46395320507298    7.79148135898453   14.30826470782684
H        15.42999285712758    7.85309767464671   13.82503775023428
C        14.72773804323774   10.12034141236922   12.30470490927322
C        14.35354043920488   11.12695632517710   13.19158251925927
H        13.35442031675135   11.10671717576495   13.60892422115451
C        15.23319375198576   12.13353750200884   13.53270631814917
H        14.93007550884321   12.90531909332733   14.22530059725177
C        16.50387741278442   12.15469172792695   12.97864427214663
H        17.19568097451010   12.94281316280671   13.23779858239912
C        16.88337998116905   11.16131082664233   12.09331172223883
H        17.87492077985016   11.17223591802616   11.66304390159564
C        16.00224890234777   10.14717067393414   11.75601389865029
H        16.31502299399379    9.37362676653750   11.06931924472998
C        14.33588351623473    7.64100368794291   10.98347197438505
C        14.72028973719177    8.00870974867746    9.69550066657626
H        14.47777528116181    9.00173544562049    9.33811697803988
C        15.38717162406287    7.11203763703302    8.88255712419703
H        15.69197347460114    7.40539682679971    7.88789325767009
C        15.65672200514714    5.83282307975813    9.34129560487590
H        16.17888609765972    5.13039121562192    8.70785668970342
C        15.24074506946225    5.45157747969278   10.60605551821951
H        15.43123577033873    4.44643592682475   10.95452883916897
C        14.57991700630749    6.34827944660563   11.42705562136178
H        14.23244173545143    6.03921438396669   12.40094190289324
C         8.86836947018124   11.94217508010803   10.65856169692899
C         8.45035102451279   11.15865078062776    9.58848898501696
H         8.78321533993920   10.12751360877528    9.52267852046399
C         7.62296711005640   11.69884610060112    8.61933351471368
H         7.30087942286053   11.09106948705782    7.78710358389559
C         7.21217400763716   13.01805001292952    8.71636685527096
H         6.56497771147568   13.43969923174567    7.96126984506733
C         7.63410691633929   13.80335575697408    9.77891838372391
H         7.31652538429678   14.83363800588692    9.84837150836961
C         8.46500896337431   13.27228617623343   10.74739691968494
H         8.80496342313591   13.88253871826336   11.57259553297744
C         9.21004392006310   11.51656886908783   13.48628717448707
C         7.85947093851822   11.81576220198498   13.62926992200691
H         7.23889274233334   11.93556173377959   12.75258283062998
C         7.31308918127672   11.95730365930012   14.89340445562060
H         6.26479516374117   12.19525835250938   14.99974026284533
C         8.10185641667870   11.78951229270855   16.01920146175253
H         7.67001849726609   11.89941311035971   17.00281604027839
C         9.44428093701750   11.46791001555385   15.88261775884591
H        10.05886495868512   11.32335477190197   16.75906307660310
C         9.99415790683555   11.32378069093540   14.62430082681598
H        11.03710800678844   11.05833012453438   14.50484333973333
C        11.34622141199620   12.41446645873462   11.82114875571378
C        11.46137926524232   13.49973627054328   12.68138427060413
H        10.73853414468102   13.64784157365268   13.47141317753637
C        12.51530956752707   14.38542055490588   12.53427123754940
H        12.60515605756190   15.22548516917553   13.20781177251923
C        13.45019103153301   14.19908391279218   11.53053198691319
H        14.27274909277523   14.89054163284818   11.42438357989025
C        13.33234834363884   13.12269614631840   10.66520508177016
H        14.06335913546277   12.97579574137345    9.88466241444555
C        12.28650702729769   12.23164529218616   10.80918970371752
H        12.18232782179136   11.37711337284432   10.14803550992751
C        11.81950272937603    6.00044583899447    9.01247651268773
C        11.88610877787752    6.97732175962491    8.03633444115185
C        12.60780303494584    6.73766797525749    6.87074166340433
H        12.66510216807944    7.49894239561658    6.10570091564259
C        13.25093066342280    5.52280649999883    6.70514790454050
H        13.80836226344868    5.33401394167171    5.79958234053556
C        13.17742567823523    4.54873028134824    7.68898616214267
H        13.67548062601618    3.60121243380146    7.54825487072749
C        12.45364263886421    4.78768507932479    8.84590263726829
H        12.35096700634866    4.04561547267614    9.62159451228336
C        11.21630908179621    8.29628468791441    8.25283862225925

