61
CSD_code = JIRFEV | q = 0 | S = 0 | Stoichiometry = C24H30N4Si2Zn | MND = 4
Zn        9.18157561267163    6.25732010293241    4.61094019766097
Si        6.95537939781292    4.22925794865050    5.75943728959116
C         6.77967965168575    2.54906138130171    4.85896099342010
C         8.40187919421096    4.13331274484250    6.99315839807020
C         5.34764024683799    4.62872410401977    6.72300488686733
N         7.42226761018587    5.49120806029163    4.66927302936431
C         6.67331287462805    5.99903410539333    3.67671471648769
C         5.35929073936604    5.62096318271342    3.39194701082702
C         4.63548704625706    6.18826975666918    2.35348547281433
C         5.17495489692799    7.15738075522203    1.53857266434577
C         6.49111539265978    7.58262078985026    1.76211414408012
C         7.12998577582347    8.56337853798480    0.97431632781128
C         8.42150836557112    8.92699063011159    1.24736039206659
C         9.08364754853385    8.31099442160989    2.31494164470359
N         8.51269775344932    7.39715895806216    3.06857331213936
C         7.24589319237811    7.01195991181176    2.82817432854360
H         6.04808798428045    2.59672829918232    4.05823322759147
H         7.72406993689245    2.24393549103171    4.41794561284101
H         6.46741076857941    1.76760014437042    5.54474335208597
H         9.35309037299310    4.07092422569519    6.47219826305846
H         8.43266853175794    5.00813174345520    7.63550512041035
H         8.31755573101979    3.26120906713526    7.63277361010130
H         5.14412991133245    5.69512147207076    6.72729035803580
H         4.48414628618115    4.13196635458945    6.29210329315668
H         5.42466631464195    4.30339135288235    7.75550024803989
H         4.90126685622824    4.86314594351689    4.00498118173822
H         3.62127396139656    5.85474843114612    2.18366779018183
H         4.60576783036353    7.59242890568867    0.73154799269353
H         6.58425051235846    9.01492930931287    0.15780896972217
H         8.93331721524343    9.67229180031994    0.65861566177980
H        10.10500304335568    8.56937496165344    2.55987171903212
N        10.94083294010301    5.49114770081340    4.55232112077193
N         9.85065643786798    7.39704118212541    6.15331536935332
Si       11.40761347912573    4.22921180308518    3.46208384059490
C        11.68997173371284    5.99900542099017    5.54472975289691
C         9.27984095722410    8.31082765989208    6.90710926376399
C        11.11754022706946    7.01190068878108    6.39340616494371
C        11.58411358189068    2.54915752435139    4.36266601776521
C         9.96078005841193    4.13271793233536    2.22880185564931
C        13.01479647764636    4.62905450992404    2.49774467857000
C        13.00407943410021    5.62101025388789    5.82919747362520
C         9.94217856305886    8.92678549757622    7.97458876594135
H         8.25840024872164    8.56913463900200    6.66245951638812
C        11.87253939039941    7.58257986063335    7.45930091119672
H        12.31595065798516    2.59710373607578    5.16315401047572
H        10.63994872759712    2.24381253826102    4.80401654819076
H        11.89638047464044    1.76772496930791    3.67684955091547
H         9.00970851947315    4.07028070281651    2.74999948210699
H         9.92966939055383    5.00736253875623    1.58623255304798
H        10.04512733187299    3.26046637823511    1.58938970291721
H        13.21666186314841    5.69575693322360    2.49116773661329
H        13.87908404883637    4.13456826874302    2.92965511778995
H        12.93824447815974    4.30140013794463    1.46594936849663
C        13.72811865241083    6.18837528827672    6.86746033564218
H        13.46199372158113    4.86320991937880    5.21606794543663
C        11.23378421863274    8.56323495724386    8.24731696430446
H         9.43045935998311    9.67202491093859    8.56349289541181
C        13.18879071993933    7.15744870655469    7.68250507202377
H        14.74236585362581    5.85484896159175    7.03707503927559
H        11.77970785276252    9.01482531206613    9.06368059242799
H        13.75814004384611    7.59251817366999    8.48940114420522

