79
CSD_code = JIRFUM | q = 0 | S = 0 | Stoichiometry = C32H28B2F2FeN8O6 | MND = 6
Fe        3.09226465163578    7.73294674467354    4.13439156157638
O         5.70634611311766    6.96984328686536    4.82376685602005
O         5.48885563968204    8.25888706698173    2.77383575404552
O         5.29596310526056    9.37271653342057    4.93109809334385
O         0.90472727816196    6.06551512473225    3.55959310396697
O         0.62659802244310    7.42067530031535    5.56834933222764
O         0.48063791244604    8.45404650655099    3.36774089170543
N         4.44661534874895    6.53677829593247    4.60160078568629
N         4.14050850314989    8.28248780582017    2.69396704329730
N         3.99150763626247    9.06431504191666    5.20039700340310
N         2.24104740954840    6.11256950684122    3.76331041824686
N         1.90816914610687    7.89979339464581    5.61353410854608
N         1.79922174444062    8.59154055382472    3.09266973026309
B         5.97930096298195    8.28635001855075    4.18001997303411
F         7.31048334342755    8.51894343729019    4.18980892804589
B         0.18602412262023    7.22096820165195    4.15369095979016
F        -1.14511666376904    6.99187548421756    4.13631154324917
C         4.24355607278550    5.26024414451103    4.39993802746547
C         5.27534267837018    4.22108663453084    4.44971200385979
C         6.28091551599532    4.24694720610807    5.41402574996230
H         6.29856797979026    5.04056241535382    6.14327590721879
C         7.24937367917994    3.26034733353858    5.43499660168202
H         8.02356114261848    3.28796749380121    6.18720373966112
C         7.23152307378710    2.24268864323116    4.49634162757454
H         7.99030431400326    1.47453233505951    4.51453829160781
C         6.24055835286500    2.21687317734301    3.52770886257862
H         6.22832620601805    1.43084617988861    2.78719932929832
C         5.26797178886375    3.19674368900204    3.50138790433727
H         4.50618424782629    3.18256963173257    2.73685393090125
C         2.87465798897235    5.00379066101618    4.04513275270727
C         2.26210377417129    3.67350456290747    4.08432471667026
C         2.60945136571398    2.78282066270119    5.10135533038543
H         3.32290593252677    3.08296958165004    5.85358944477926
C         2.02847955682209    1.53141126679107    5.15822525092773
H         2.30021563211878    0.85090452359386    5.95158398636094
C         1.09709608945898    1.15021067507824    4.20521982027007
H         0.64513771596085    0.17058762294391    4.25237913914893
C         0.74296420082333    2.03173177660245    3.19794201938637
H         0.01293368503679    1.74127811196015    2.45736168613190
C         1.31710262415328    3.28798093152898    3.13546757281786
H         1.03748060506658    3.97447187255296    2.35275785003923
C         3.57719982313168    8.98960430301235    1.74794401389916
C         4.29833220694272    9.70810808872882    0.69419823931232
C         5.41499092024427    9.14721827725687    0.07723648514804
H         5.75108481252941    8.16691447751765    0.37406919475489
C         6.08624898772541    9.84417416008299   -0.91032806489089
H         6.94905880501501    9.40039101154154   -1.38401539083005
C         5.65893209021399   11.10525087082830   -1.29007224500982
H         6.18624237959650   11.64747960544991   -2.06083357976407
C         4.55579257300627   11.67346858038594   -0.67268795412057
H         4.22474742186473   12.66092013258818   -0.95861603092141
C         3.87768203692610   10.98307899922415    0.31243209649670
H         3.02769198995954   11.43403570373426    0.80162044881783
C         2.15165223786376    9.04256968700114    1.91580494254575
C         1.22791807474552    9.47921985266092    0.86565721465395
C         1.48116704657756    9.13259633629503   -0.46256915272904
H         2.35070404445491    8.54005426180077   -0.70300383417127
C         0.61479676614660    9.52828751590000   -1.46236769503858
H         0.81764885872694    9.25188551141469   -2.48646631100466
C        -0.51291359687141   10.27297822421901   -1.15475209033647
H        -1.18795373056957   10.58164097433922   -1.93908026241259
C        -0.77464072871590   10.61281112363625    0.16167761458867
H        -1.65580372764160   11.18686060481221    0.40660756149752
C         0.08627418289210   10.21824950262242    1.16905818803313
H        -0.12107550132027   10.48056062426873    2.19388069048598
C         2.14504642348618    8.82974081865196    6.48972217477927
N         1.22755027577438    9.20303586599005    7.43340106652016
H         0.30457250040265    8.84331832335548    7.21628790341641
H         1.26571068544103   10.15776282738103    7.75183681853204
C         3.47884652874081    9.39326107155966    6.35559198254441
N         3.99103442818939   10.23184167321376    7.30350789733909
C         5.11912870590099   11.09278971630454    7.01758174675256
H         5.07164718380754   11.43728853393935    5.98953867966211
H         6.07674423844558   10.58774021566227    7.16678718133435
H         5.05968055967252   11.95166714469518    7.68845581581711
C         3.86559206188118    9.89096868570665    8.70588783135394
H         3.10416155693509    9.13141902140935    8.85270559797356
H         3.60345524897292   10.78435696465621    9.27706838334982
H         4.81768312971252    9.50752727049504    9.08722520939726

