35
CSD_code = JIRHUQ | q = 0 | S = 0 | Stoichiometry = C14H17AuN2O | MND = 2
Au        8.27350349863548    7.10245228708389   13.13152926932372
N         7.05239919611679    8.84196940417100   10.97758175657097
C         8.46481248349405    5.17549293975894   15.60276187212217
O         9.12378203961056    3.04761424863077   16.31311090267190
H         9.18023620469729    2.45806698035760   17.07338354998042
C         7.26380425659884   11.07166193139541    8.02818455672620
H         6.69684231157589   11.65655104314429    7.32036446722334
N         9.21403369166584    8.79459780680275   10.81181240727193
C         8.38374223633942    5.92005024529078   14.65833968513579
C         6.59614140039334   10.37255706914248    9.01599673737651
H         5.52081265750513   10.39892976236671    9.09447316703630
C         8.17153402149302    8.32953473197102   11.53299656584045
C         5.71437404328713    8.59757910447021   11.43416958632862
H         5.12622687585995    8.12084282252869   10.64725261987838
H         5.23275521155826    9.53588352083970   11.71702911027012
H         5.75930054515364    7.93844152247119   12.30070799956093
C        10.59448512452520    8.49223097804799   11.06024307806217
H        10.65440380761448    7.82887086917359   11.92264273752481
H        11.15172993527208    9.40804608008588   11.26808642709399
H        11.03630655326303    7.99796783822542   10.19258551780541
C         8.55872442652341    4.28137526415120   16.75721080213052
C         8.65355071041178   11.04106549008618    7.92164629334974
H         9.13116080660516   11.60298413649495    7.13377492369844
C         8.77089960934810    9.60599374890729    9.79282111587067
C         7.15473717876694    4.03735254622980   17.33480974893806
H         6.69491143543847    4.98303554921336   17.61197866734939
H         7.20875503955704    3.39751729572785   18.21707128025081
H         6.53226661251854    3.55265989894616   16.58534305999486
C         7.36993768698289    9.63674604078688    9.90017469553042
C         9.43254671930794   10.31014967518126    8.79862012209394
H        10.50738880267653   10.28922093042936    8.71253356627291
C         9.46393487848770    4.91717484860961   17.82553188537303
H        10.46595387651316    5.04778278640950   17.42178505371507
H         9.51927548682578    4.28065778764360   18.71003210770224
H         9.07473063537720    5.89054281522400   18.11431466392538

