65
CSD_code = JIRHIC | q = 0 | S = 0 | Stoichiometry = C21H21CuF12N6O4 | MND = 5
Cu        0.40687476320053    6.48452138729010   10.07637768411876
O        -1.18259040646340    7.30039349541478    9.36388812634843
C        -2.93182019857120    7.57007292440846    7.80439945617245
F        -2.75374652594595    7.42809689498085    6.47935972948961
F        -4.21379381231456    7.26626097084898    8.04763391019948
F        -2.77283644395073    8.86391179263863    8.07840371670446
C        -1.95362614207429    6.67704276259787    8.60118048977710
C        -2.09028149450564    5.32735245512071    8.33673490693398
H        -2.86022995111602    5.02115890117094    7.64641774898793
C        -1.30212461339917    4.32133805091148    8.92116931894600
F        -0.98752474125107    1.96541812032603    9.14581732671211
C        -1.69219714042244    2.90220190157184    8.49223326891694
F        -1.45320253322960    2.70815073215206    7.18339158585661
F        -2.98416924052190    2.63086838359187    8.69529944264567
N        -0.30445501541299    4.49916732031338    9.71515381627967
H         0.13773161498855    3.65450010318877   10.06422424920731
N         2.13624298286443    5.98550450834947   10.70079750572560
H         2.72199795317367    5.46995994214404   10.05917674142237
C         4.17118437040517    6.03658101470896   12.01961029838644
F         4.34534518302638    4.99665454040347   12.84373566166994
F         4.85670190748796    7.06078447888218   12.51993198755319
F         4.76521328227800    5.70044634092369   10.85646493216891
C         2.68938612773096    6.35396863632548   11.81095506198632
C         2.05870922119438    6.99721471987086   12.87431521206943
H         2.63633290496267    7.25106557345716   13.74688565106817
C         0.70430065774017    7.30938107957179   12.83843302358830
C         0.16194618587230    7.93890899535071   14.14206138094863
F        -1.08635374642050    8.38156632043211   14.01102132908796
F         0.17200200107332    7.05377254617840   15.14827267389994
F         0.90547146258086    8.98186230914212   14.54194905254725
O        -0.12370064561582    7.14506076358011   11.92300234469160
O         1.11548951320608    7.03909079031599    8.22593799983049
N         2.35976960775696    7.25923604348548    8.02746989694963
C         3.16598994735199    6.44489578985982    7.10102947128712
C         3.20413168631821    5.00091622883360    7.61105291499108
H         2.18365348413889    4.68785006199423    7.82832046092435
H         3.81106646390416    4.89515795374373    8.50536098358335
H         3.61051031686327    4.34553797237392    6.84612786644141
C         2.45493163802531    6.44655223686004    5.74665046408439
H         1.49497261629456    5.94843582506261    5.85966822308119
H         3.04408110100114    5.91108680191901    5.00843501394575
H         2.26456215669039    7.45358201948281    5.39016301214272
C         4.53064540548094    7.18671102731017    7.14419500476417
C         5.76394030552450    6.31280220062092    7.34739193006814
H         6.64126665292455    6.95383038779095    7.38232026371504
H         5.87152636847798    5.61341078860893    6.52415887855359
H         5.72481357586556    5.76607897865518    8.28448614247686
C         4.77022879451066    8.12297375381748    5.95487124939858
H         5.66239711161675    8.71211392928223    6.15721947838061
H         3.94008291963817    8.81040876307081    5.81450445100758
H         4.92687037157025    7.55581867469451    5.04280756078882
N         4.38045416186105    8.07693707508303    8.32228566401408
O         5.34859478074582    8.71902093234780    8.77836006151393
C         3.11118888963331    8.14472400495199    8.71414649061908
C         2.58969936534657    8.97652252946548    9.75643982650757
C         3.29302147947893    9.59176488534006   10.81925257045124
H         4.34548059778473    9.57493293427534   11.01358197698871
N         2.45905340822061   10.22855253780128   11.60652812837195
N         1.24344361314485   10.06559956108877   11.09427343060791
C         0.09705495785132   10.66528673605675   11.71413809085416
H         0.37337942114580   10.95442932627416   12.72627565761006
H        -0.72860968269829    9.95434789000103   11.73615862953841
H        -0.21487421816373   11.55417137172868   11.16215925870806
C         1.25549135623092    9.31826520041155    9.98543090119891
H         0.36830386486110    9.12006682148965    9.41780041246010

