56
CSD_code = JIRPAC | q = 0 | S = 0 | Stoichiometry = C21H28NO2S3Tc | MND = 5
Tc        2.89098807652882   -0.17661713344410    1.13379626183481
S         0.68112118401449    0.19292491346946    0.61432789545481
S         3.37916304586262   -2.41018684899023    1.08666957309032
S         2.28565877772525   -0.42906801363978    3.36532674737472
O         4.07185733001520    0.96788616109352    1.22659001740919
O        -1.18489668515669    4.17381482707348    4.65749690822999
N         3.08416113258611   -0.38468200786030   -1.16749024714776
C         0.66987588679578    0.13226301864045   -1.21589583784009
H        -0.30334993144732   -0.26745672602776   -1.50199010605268
H         0.75314172219774    1.14900895094482   -1.59913015263200
C         1.78090936192932   -0.77678601860561   -1.71579281257773
H         1.56077258585969   -1.79276400381729   -1.37441591664858
H         1.80182055425247   -0.78639616192334   -2.81430007017983
C         3.88011223892309   -2.69807372901097   -0.65693746955134
H         4.80096017328500   -3.28044469133679   -0.63325315430961
H         3.09998640709159   -3.31333785821212   -1.10851216132525
C         4.11255509700006   -1.40322947034562   -1.41845094735840
H         5.06364871050675   -0.97547569994608   -1.08926294410815
H         4.17597304558400   -1.63105293715737   -2.49189092138452
C         1.21917603789814    0.92557932844165    3.73928285990925
C         0.10225217530244    0.72513491987268    4.53601078073477
H        -0.11936874011974   -0.26728925567306    4.89614420277055
C        -0.72584861716030    1.78371623730653    4.86594749802448
H        -1.58934835148004    1.59586252628824    5.48440896879841
C        -0.43951946694839    3.06220309780035    4.39953814417273
C         0.69363707335851    3.26129272253059    3.60598460296372
H         0.90617982276015    4.26020403450562    3.25928576549648
C         1.51707601191871    2.20734180827089    3.28312859505483
H         2.40159826844079    2.35952033918952    2.67665470981941
C        -2.33390399539065    4.04110256007069    5.45767474671393
H        -2.76149877927075    5.04025974763337    5.52738544814051
H        -2.08570869300901    3.68374702274020    6.46233008168293
H        -3.06578354109978    3.36594492103306    5.00240535254377
C         3.53267237966129    0.92937407160103   -1.66793827612642
H         4.45820328386386    1.17166638864392   -1.13905893822925
H         2.79569267192768    1.67565178063680   -1.36410000346225
C         3.77473477541983    1.05058112153366   -3.17498195818293
H         4.55861406845492    0.35982161271625   -3.49154697643547
H         2.86765013716256    0.81672475285889   -3.73631155843450
C         4.20607635845306    2.47524817170441   -3.51933520902018
H         3.41222515629592    3.17496254266192   -3.24938352174109
H         5.09004393422108    2.74089937478730   -2.93656172941927
C         4.52280524552400    2.62709671097298   -5.01152346843014
H         5.33740771334353    1.94916520400458   -5.27622433725298
H         3.64371415669895    2.34920201074929   -5.59739019065667
C         4.91600197271585    4.04360528654533   -5.32252246350319
C         6.23085076300443    4.46137072489412   -5.16262483589092
H         6.98033190419426    3.75073843071005   -4.84369650783549
C         6.58935678404418    5.77381492264935   -5.41245388373470
H         7.61629786192931    6.08423856437415   -5.28636272128199
C         5.63461970284846    6.68771557131203   -5.82461660028149
H         5.91356794108247    7.71220065322258   -6.02137618201027
C         4.32106883461720    6.28181697494776   -5.98472964016971
H         3.57139518521085    6.98968018468870   -6.30690225588282
C         3.96544405911054    4.96862318415685   -5.73302850283851
H         2.93832719124822    4.65635517861896   -5.86109665805797

