63
CSD_code = JIRPOS | q = 1 | S = 0 | Stoichiometry = C30H28AuN4(1+) | MND = 2
Au        6.06364682336203    2.54114787979002    3.75010465101653
N         6.45000850509865    1.20432824035062    1.08814458478193
N         4.64247558374796    4.19914897562927    5.81309573168218
N         6.65035082768985   -0.24342429541387    2.68794807145086
N         6.63473338018934    4.97903750572592    5.46923768552690
C         3.47824198056285    3.35191550888401    5.70553385889607
H         3.10627102812620    3.37812818400527    4.67667145411210
H         2.70317801904046    3.76038998250259    6.35917423746437
C         6.25134557125657    2.46697152932487    0.41653054394680
H         5.26153092719398    2.85860532738101    0.67007364357718
H         6.28075563193568    2.28410718497505   -0.66071773470063
C         3.78349784271652    1.92771767573843    6.10379824354457
C         3.59170778191340   -0.43730779317142    5.71379700867454
H         3.22071285031549   -1.25514007943762    5.11468530531455
C         9.27617699502227    5.32528602827247    1.45710400272855
H        10.03966380359772    6.04504305447492    1.70903430425017
C         4.50780022422305    1.66631696928634    7.26042699317969
H         4.85600858765293    2.48514695474996    7.87416995349895
C         5.76318984463704    4.03213770075447    5.08535754072174
C         4.32176067679884   -0.69174936808819    6.86256190579850
H         4.52636367913877   -1.70834796476409    7.16115439199240
C         6.38562131924892    1.04644939265823    2.42398026911789
C         3.32888051357308    0.86689615555661    5.33227430593422
H         2.75565691403069    1.06173954761173    4.43759408867738
C         9.62801767164158    4.02299466724659    1.14346551844222
H        10.66545294668414    3.72593576464220    1.14980222701607
C         6.89665664295323   -0.92770485518820    1.51709465307703
C         7.96018427555676    5.17039814137830    4.95290467614838
H         8.69841847250771    5.00676950576636    5.74009300091915
H         8.07036115746190    6.18723894661425    4.57402696147369
H         8.13557217636687    4.46666922147852    4.14103737252209
C         6.96540960885253    4.77886191381792    1.11192952284283
H         5.92742263794849    5.07748346480313    1.09282121969227
C         3.95638132119557    5.82174188198538    7.63994099739983
H         2.96551861586374    5.44149530696679    7.83099605311279
C         6.08037907475253    5.76306051436778    6.45810725385296
C         6.77136382565877    0.01076871447939    0.47961325298827
C         6.68696900196620   -0.85194794784779    3.98723968555089
H         7.69090747994379   -1.22321004467419    4.20100075227690
H         5.98719217474187   -1.68767412179448    4.02870279613484
H         6.40652701750682   -0.11500616663271    4.73787501028885
C         6.56979944455446    6.84807966399699    7.17180097272592
H         7.55957721621151    7.23784770397460    6.99792629267387
C         8.65163367225293    3.10230033902027    0.80779987807571
H         8.93302848787528    2.09084208434360    0.55049259480867
C         6.96993686333003   -0.35578328638726   -0.84491096210064
H         6.88321111551794    0.35287774666275   -1.65310964222898
C         4.79039402353098    5.25580709450374    6.68484139303665
C         7.31254188136806    3.47296458493989    0.79361171600381
C         7.29091976059612   -1.67550338195578   -1.09025130258609
H         7.45407263332224   -1.99720758098281   -2.10654011419453
C         4.78030927480044    0.36268796908700    7.63457586528289
H         5.34194031742693    0.16976282242158    8.53567034281894
C         7.94400854891173    5.70245987068747    1.43597239302034
H         7.66458970945525    6.71926316325581    1.66724274229830
C         4.45077348808579    6.89929032653319    8.34659986183504
H         3.83236213114765    7.36440706481651    9.09774888886723
C         7.21764806050310   -2.25364637503700    1.26205357561430
H         7.31369564189313   -2.97407765631096    2.05801045345773
C         5.73187691090900    7.40440800663087    8.11678186865866
H         6.07265260180737    8.24869514580034    8.69460942387031
C         7.41138617693203   -2.60749631446063   -0.05772296964079
H         7.66372862687885   -3.62739819580122   -0.30048926716454

