63
CSD_code = JIRQAF | q = 1 | S = 0 | Stoichiometry = C30H28AuN4(1+) | MND = 2
Au        4.08521253713172    2.22440943115735    2.51251771174724
C         4.31882946092160    0.23069995183633    2.23583042097683
C         3.83068092065481    4.20837207470328    2.85772041809869
N         4.14893002545945    4.83853355338285    4.00240386969052
N         3.64118910917910   -0.57369578900518    1.39947815956944
N         5.15233001659212   -0.54699152639198    2.95268470220160
N         3.25520516378224    5.11595964627323    2.04773646337176
C         4.76205201958600    4.23754237433697    5.16010032606059
H         5.59902571092730    4.86437834360115    5.48090721196263
H         5.14809514739160    3.25629692328552    4.86521803604677
C         2.77693536521662    4.88168158082540    0.71477679017792
H         3.02010147114239    3.86192253864068    0.42159290848065
H         3.25088434948008    5.57701713107109    0.02045488626912
H         1.69536339539299    5.02309648009067    0.66946173343143
C         5.60176265103668   -3.04258836149009    3.02820883000044
H         6.34028223525096   -3.04810900903849    3.81366729000558
C         5.31909393186983    0.27881281518301    5.27431649944793
C         5.00472984248691   -1.86836144636401    2.58981801431400
C         5.20237609246513   -4.21442994290246    2.41830592520063
H         5.64316529060609   -5.14748765357867    2.73142602135727
C         2.65262872949430   -0.16437827305663    0.44272225331663
H         1.71049201678665   -0.68105104837602    0.63261379643535
H         2.98545373830127   -0.40182470226037   -0.56928247620255
H         2.49611746287660    0.90940652079359    0.52813138814275
C         3.76974037134461    4.07362504399510    6.28610497316828
C         4.05273492101555   -0.20609702886306    5.56589468383377
H         3.53485512602894   -0.84035499835133    4.86074729228832
C         4.03240815450746   -1.88358848910423    1.57708960021640
C         3.63730432314942   -3.06581904745361    0.96693444111579
H         2.89353215526708   -3.07830637985125    0.18690396808988
C         5.96881670333274    1.07943674206345    6.20660799455472
H         6.95975186290735    1.45250961452993    5.98931710270279
C         2.56506076364643    3.42346073712974    6.05413032965765
H         2.34993094848649    3.03342561703303    5.06836964930830
C         4.04577538719586    4.56292622355086    7.55391082013618
H         4.98315895937222    5.06606675085287    7.74426547191932
C         6.03288820535620   -0.06417502879231    3.98377324581335
H         6.55981585175447    0.82093246643965    3.61154771069624
H         6.78047077619270   -0.83861592660665    4.17986290973457
C         4.24089245531657   -4.22663078467825    1.40589136485865
H         3.96349734221911   -5.16809854808191    0.95924908027338
C         1.92765730526061    3.75929983053083    8.34043052051795
H         1.21063210066403    3.63956578614793    9.13796698562971
C         3.76225829399261    6.15933137380340    3.94440979032719
C         3.44489170714513    0.10740612738973    6.77000500998195
H         2.46032581756872   -0.27772778307283    6.98627818094131
C         3.19065878774546    6.34120336144924    2.67601333796690
C         3.35532042880968    8.42695012542204    4.44788813491170
H         3.40269683077693    9.26564296902898    5.12417366676104
C         4.09879001794923    0.89930004952437    7.69617670969685
H         3.62697499102745    1.13654208857355    8.63646969968350
C         3.84920395190038    7.20386193661493    4.85387404981593
H         4.27345031465954    7.06530858208724    5.83454492192646
C         1.64693638989861    3.26897716795839    7.07594376794606
H         0.71158242025568    2.76481960433733    6.88622863622863
C         2.79263672453376    8.60957563260902    3.18295051965801
H         2.42127053821182    9.58513412238496    2.91209532405159
C         3.12930762741051    4.40304271673216    8.57889389082637
H         3.35317781835996    4.78573191904396    9.56287594333084
C         2.69702649407480    7.57465658421483    2.27473698917232
H         2.25746870244185    7.71929169380885    1.30119006902954
C         5.36378425456647    1.38507210231876    7.41187226511100
H         5.88177749090970    1.99950543215841    8.13166976793775

