33
CSD_code = JIRSAE | q = 0 | S = 0 | Stoichiometry = C12H14OS5Ti | MND = 12
Ti        0.76188731644850    4.02249132844032    0.19020038411447
S        -0.35702799168999    3.58576890081329    2.35506987659647
S        -0.59381225269037    1.59854859231793    2.62847882691149
S         1.13814278481663    0.83425552356860    3.43820880892805
S         2.41401792808416    0.55064857904189    1.80533061975572
S         3.27210720903919    2.37705329646206    1.54539199473236
O         2.17126345798684    3.21984194831216    0.79137619041636
C         0.93685088133414    2.49277653539295   -1.56821513117829
C         0.27000012196918    3.63405448723117   -2.07663443772649
C        -0.97353747163303    3.75582273271557   -1.41734078364985
C        -1.07581838932264    2.70746280752093   -0.48856916404116
C         0.09903661795289    1.91927851218971   -0.58656557231325
C         2.24034583262903    1.93527660851116   -2.06011243826514
C         2.25516323549611    5.84903252627672    0.67064614960473
C         1.82399872715736    5.91817554102040   -0.67472160665831
C         0.43085753429656    6.18434620414881   -0.67933721253640
C        -0.01776612501621    6.17589815074704    0.64696908997953
C         1.11454106504956    5.97317288582887    1.48485339103224
C         3.67239750973631    5.73651411992411    1.14322477713929
H         0.60243187855188    4.22207502544279   -2.92317347982890
H        -1.76395948717955    4.45354572355276   -1.66393824012892
H        -1.95448627529176    2.45803208851671    0.09391941413677
H         0.26884560724692    0.97085873585688   -0.09188379326406
H         2.47865255883121    5.95248438173409   -1.53793182762153
H        -0.15289914979572    6.46025094351236   -1.54703293131876
H        -1.01530553804433    6.42083638662791    0.99278210830768
H         1.11446092554411    6.02495303550981    2.56643465350501
H         2.97752923501298    2.72743405024410   -2.20905569817121
H         2.09056877111597    1.42877261223366   -3.01603997161787
H         2.63969014982279    1.20922596134696   -1.35178463850755
H         4.25944295348018    5.09743680345046    0.48188533060573
H         3.71063587198892    5.32733293610637    2.15244409037679
H         4.13514450706981    6.72574203539985    1.15812122068608

