120
CSD_code = JIRSEL | q = 0 | S = 0 | Stoichiometry = C42H73FeNP2Si | MND = 4
Fe        4.22145986772953    1.69570998311776   11.76936992886021
P         6.61032094309699    1.07240773034257   11.75805132678764
P         3.39069239400458    3.79778693628613   11.21668837397414
Si        2.50009343195775   -0.61355264200295   10.87585698125269
N         4.43116719545759    2.14315808457661   13.56875551355053
C         3.77941103587710    3.09251535444924   14.31806795356847
C         3.38100381879764    4.37909316552293   13.94333931214856
C         2.70936245054560    5.13812235763393   14.88407014658602
H         2.41009646660314    6.13805275434989   14.60152427211112
C         2.42995492224136    4.69232893397713   16.18330762419023
C         2.91542467328614    3.45513350624749   16.57402280495563
H         2.78623135719241    3.08665048152291   17.57820164771107
C         3.60199463864004    2.67242998993152   15.65795627732538
C         4.29447747674343    1.41834220033754   15.75842921467880
C         4.55116330520859    0.57160034422334   16.82454820315344
H         4.12719476593293    0.80656185308324   17.78668302915915
C         5.36105949594087   -0.53581483763676   16.63290691228611
C         5.89560783821996   -0.75299167524460   15.35776543570200
H         6.54746091177557   -1.60247174802652   15.20555158151656
C         5.64078348340725    0.05597643893704   14.26186146876029
C         4.80515610977039    1.15892026212367   14.46063706470171
C         6.22390767170754   -0.32105513809030   12.93096261520121
H         5.46487331987476   -0.90241003401601   12.39345826888737
H         7.10083658802760   -0.95803469484022   13.07673278130944
C         3.79304579571298    4.94444583241910   12.62021846010155
H         4.88388189834240    5.02115639217135   12.62782697895890
H         3.37882544346829    5.94266223001460   12.47550007756707
C         1.64103961256071    5.60095738337553   17.11451799228329
C         2.42168363133402    6.90345335729596   17.34070963204108
H         3.39740092898079    6.68554771086931   17.77019806124962
H         1.87924860084249    7.55303683930960   18.02497213852358
H         2.57343157032387    7.44208633508851   16.40927704111764
C         0.28070874982658    5.91491070305902   16.47467711929972
H         0.39685006399500    6.43967845492190   15.53033081561465
H        -0.31262040314028    6.54014826777753   17.13903744541414
H        -0.26646954824073    4.99322608872503   16.28701329271382
C         1.38290218259881    4.95851896744433   18.48018308292952
H         0.83240554500763    4.02653472141655   18.37416069991465
H         0.78920865207872    5.63366029774133   19.09381472842603
H         2.31617026299624    4.76365616256602   19.00334551147420
C         5.70128171063789   -1.51370201846628   17.74778892327955
C         7.22116598529768   -1.52851681433277   17.96512731378822
H         7.74703118649953   -1.85724085947837   17.07281326960970
H         7.47818726953267   -2.20403545814531   18.77872047258415
H         7.57318810939220   -0.53078328952841   18.21975977595277
C         5.03592537803421   -1.14228828016096   19.07581476096327
H         5.37025968345416   -0.16662718416196   19.42102532418979
H         5.30199553441084   -1.87662319641703   19.83396320485220
H         3.95260745955158   -1.13468988246663   18.98023514306721
C         5.21881079913068   -2.91671167381982   17.35209873523137
H         4.14497669252647   -2.90745930442929   17.17656697532364
H         5.43315341996953   -3.62708080341928   18.14824764502736
H         5.70786661327967   -3.26428396674676   16.44616977276131
C         7.47514480611555    0.05013126770409   10.37895670858480
C         7.49822841212676    0.96449167582140    9.15023087770823
H         6.48943027330319    1.30728641040631    8.92583705050960
H         7.87967841731836    0.42727803566908    8.28236528788214
H         8.12580030970090    1.83654816845577    9.30824299288750
C         6.58869615496558   -1.15628113218975   10.05112241042095
H         6.72100177047516   -1.95529727401716   10.77666579304930
H         6.86306287011279   -1.55377452205354    9.07403842013421
H         5.54001746219585   -0.88136474648203   10.02056101148012
C         8.87474699884933   -0.49999306871202   10.65171345022458
H         9.62218914735604    0.27814132271155   10.76450113305439
H         9.17536557422890   -1.11867427078446    9.80524180236673
H         8.88475733620103   -1.13250518385919   11.53656474256542
C         7.99114997340710    2.02424606146993   12.69833945065143
C         8.85256401653280    2.82725737766053   11.71890050522386
H         9.47562538149237    2.19498750408142   11.09514351053070
H         9.51652735221807    3.48665038053603   12.27827001830010
H         8.22926440904157    3.44763595914263   11.07857366604174
C         8.87495772597697    1.15492108683325   13.59192983826722
H         8.28175362584986    0.66147255025500   14.35795601316891
H         9.59917403376310    1.79366582619694   14.09802212152592
H         9.42772513195662    0.40749383810375   13.03370549474763
C         7.28777699926153    3.04590511687252   13.59790681924532
H         6.53229144332783    3.59511830285120   13.04021668364633
H         8.01432762611801    3.75751832301190   13.98978857760311
H         6.80730750034650    2.56385259955670   14.44362560599007
C         4.25854709665674    4.72248408299882    9.78813783478161
C         5.74614483780864    4.70612290243083   10.15644797131684
H         5.99423983051056    5.46908582829228   10.89033177795987
H         6.35450023731036    4.88971136373663    9.27175781017653
H         6.00470939697504    3.72056402066741   10.55620954782811
C         3.80383761163187    6.15625659221426    9.53314386344646
H         2.77916466430058    6.19010189131256    9.17305354184458
H         4.43844311728230    6.60354227727775    8.76758705721586
H         3.88495122213062    6.76786776265138   10.42857955848021
C         4.11512297402731    3.89428718760878    8.51083295284753
H         4.44555540499674    2.87571463243115    8.69878394389250
H         4.73495357137675    4.31920666691004    7.72128105699269
H         3.09237393113992    3.86807324372021    8.15148998783840
C         1.50013885143512    4.07256755770844   11.10946403952933
C         0.95305356017194    3.78343106183733    9.71190255282200
H         1.20076070912049    4.57871773350531    9.01330370846475
H        -0.13398276712370    3.70948258374004    9.75535750140340
H         1.33460627546985    2.83993905326805    9.33074819543932
C         0.94537865490083    3.01386881042344   12.06833877897854
H         1.23373103970961    2.01987795998813   11.73191023054418
H        -0.14220139491427    3.06751152657118   12.10847342693514
H         1.32961732034368    3.16412406596864   13.07606457189193
C         1.00064408183278    5.44581798837592   11.56139123604204
H         1.15714340434283    5.58508565279477   12.62679066030457
H        -0.07216468382181    5.50721850942888   11.37726672289511
H         1.47624418920656    6.25763813906125   11.01848555317367
C         3.49361027099489    0.81143297306932   10.11467265267604
H         2.80384633382411    1.41654419253205    9.52428506175904
H         4.22328799576036    0.43386191805655    9.39659391585777
C         3.18398606124548   -2.36898287118459   10.52057522518741
H         3.42327603359582   -2.49821448376174    9.46993070424307
H         2.44346483193196   -3.11944400717801   10.77976946833730
H         4.07970529350027   -2.59021405038246   11.09169130062464
C         0.71003148911064   -0.61931243345308   10.19367554955338
H         0.20600779963027    0.32618674665639   10.36542522038267
H         0.11428331263418   -1.39727743604427   10.66135972499350
H         0.70435992819620   -0.80195068362555    9.12369266364874
C         2.39402730978305   -0.44454001133956   12.78445176777172
H         3.19228133866867   -0.98124177165163   13.28786518777799
H         1.45651497403821   -0.84274436920680   13.15921713633314
H         2.44484214750762    0.59758896391626   13.10227721931844

