58
CSD_code = JISBIW | q = 0 | S = 0 | Stoichiometry = C24H31BrPRh | MND = 8
Rh        1.66119949264845    4.01616723536026    4.18944247639570
Br        3.40913022895939    5.72193020773010    3.85083066921510
P         1.10818751644143    5.27534654702739    5.98830504175853
C         2.22492822285885    1.89752116883410    5.04452195800166
C         0.91877455132116    1.94816228500553    4.40822519735873
C         1.11826769923659    2.20455803422954    3.01251122280118
C         2.49221380911902    2.51686698933614    2.83185156211708
C         3.18032704210790    2.26151796399511    4.09110266615193
C         2.49903127638662    1.34567384068166    6.41002405980424
C        -0.33800668411505    1.41389483980131    5.02320356519988
C         0.09342840844255    2.05299374746050    1.93161395830657
C         3.19985039296654    2.71847254031536    1.52711479808471
C         4.66763596207672    2.24756754945015    4.24452430825158
C         0.19839096139390    5.02619175779900    3.19424779544495
C        -1.13319831514712    4.83050582732753    3.54939135767014
C        -2.15834830013319    5.38568456437087    2.80083247964093
C        -1.87000503573061    6.14311783818659    1.67945533945054
C        -0.55065600083367    6.33705440913313    1.31342268264288
C         0.47708112755841    5.78380929487112    2.06207831068806
C        -0.30112030549552    4.74627724834732    7.02144246943490
C        -0.12334742428289    3.71644981455611    7.94056104206694
C        -1.18547220874162    3.24994391729780    8.69307207111731
C        -2.44546490397524    3.80120132357785    8.52876389867809
C        -2.63367983874157    4.82225536373915    7.61218119559495
C        -1.57108550356299    5.29085592302101    6.86028165569797
C         0.74815776205629    7.04934051203117    5.72156242747238
C         2.44108980833405    5.41654860295670    7.24494626940667
H         0.44410527643219    7.50943521645917    6.66172967515159
H         1.65613706086043    7.52467388667553    5.35262080728683
H        -0.03027966036321    7.17199482183859    4.97097446342269
H         2.82202930685945    4.43353885335556    7.51704481724806
H         3.25539364976963    5.99101516172632    6.80402372793012
H         2.06620694194807    5.92441280315382    8.13326326314548
H         0.85846289634915    3.28535588710486    8.07377885531824
H        -1.03159398202680    2.45373266733736    9.40753647237800
H        -3.27680878692857    3.43593301166687    9.11316023102641
H        -3.61456817980968    5.25557024733888    7.48099289034111
H        -1.73067754965684    6.08387738753948    6.14532070733854
H        -1.38829133903122    4.23830832934432    4.42095892329849
H        -3.18547577460402    5.22204086984447    3.09851938033465
H        -2.66874343894679    6.57716387072031    1.09545766019591
H        -0.31128206747489    6.92394468335706    0.43798046772226
H         1.49654525294081    5.96289776957093    1.74840143990190
H         4.03629326831499    3.40590160978681    1.64142236842425
H         3.58966344838216    1.76252739764125    1.17007483491592
H         2.52587120905076    3.11882528969832    0.77242339519242
H         0.33040342818657    2.67662114807614    1.07230831417731
H         0.07088883083180    1.01117573594801    1.60467054824978
H        -0.90108366806005    2.32422235269048    2.28001101347143
H        -1.20748169973626    1.67971913923239    4.42642957502665
H        -0.28286848674177    0.32444366131755    5.07802987181595
H        -0.48577715783820    1.79746186032257    6.03277887372980
H         1.60492322423182    1.36670806787764    7.02835689796091
H         2.81929200492984    0.30525400915851    6.31820129561709
H         3.29295537768025    1.89340613623444    6.91663628774693
H         5.08145024786284    1.40056036138661    3.69416883020211
H         5.11264690903547    3.15788747364199    3.84477152515157
H         4.95365371637209    2.15458094352725    5.28964210780413

