59
CSD_code = JISGEX | q = 0 | S = 0 | Stoichiometry = C28H24AuN2O3P | MND = 2
Au       10.80929247233087    3.50127036181474   10.81621644767948
P        10.88907188904535    5.25323077186916    9.41913789796948
O        10.78586155580512   -0.44927088971839   11.81719030040264
O        13.22242301106177    3.35407313413981   17.57979188457057
O        12.58817048199773    1.34759886695598   18.02888129086253
N        10.72938264340819    1.84157146557824   12.05432521547501
N        12.70400831932452    2.29296112088579   17.26694678027305
C        10.41072700443668    0.65108850735821   11.45840512572750
C         9.55505101247059    0.81157017426948   10.23264368230079
C         9.08723678209863   -0.43467940640579    9.53946716996906
C        10.13566745435781    0.41044014828939    8.90026032856339
C         9.11310505803983    6.62564648343645   11.02431589933758
C         8.43448169163774    7.74254306862546   11.47774261487694
C         8.68122434199736    8.98018776874081   10.90619668586197
C         9.60723368677818    9.10429104468635    9.88138392520746
C        10.28815699294903    7.99273246002575    9.42161567097001
C        10.03712391998551    6.74733577726600    9.99195587830585
C        12.93010371575450    6.26494723940749    7.74547615191512
C        14.21429034693248    6.73311698537646    7.53076124293726
C        15.12006814616486    6.79315096910237    8.57744648562500
C        14.74705051024002    6.38066093161343    9.84727221576597
C        13.46752891479732    5.90830506970301   10.06863336697775
C        12.55376464796907    5.85341718576988    9.01965483560983
C         9.06844868851252    5.56400487225409    7.27484441646073
C         8.53991434890921    5.16528905915212    6.05849877436587
C         9.08509466189895    4.08920863240663    5.37849907614862
C        10.16299254446604    3.39867767038430    5.91355129097328
C        10.69338038516178    3.78733860707006    7.12765393933365
C        10.15526654268805    4.88067973348853    7.80549885614824
C        11.23582676659529    1.89041803108997   13.32875133170152
C        11.11620198114765    0.84031929188845   14.25982309409010
C        11.59173775742208    0.97212952465395   15.53997325634139
C        12.20805488127906    2.15651850032036   15.94540398805794
C        12.32868533785092    3.21532280319412   15.04562874546195
C        11.84543963552224    3.07890581206613   13.77095605098475
H         8.93744501061865    5.65290705615040   11.46699646783086
H         7.71754332479470    7.64800590368373   12.27916713756592
H         8.15439223065389    9.85235628262865   11.26264916546692
H         9.80014363487894   10.07133792163446    9.44140955069948
H        11.01501467598761    8.08437749470930    8.62606676604550
H        12.22429393544283    6.21261437996023    6.92755367981490
H        14.50862115854754    7.05176710359090    6.54177447046934
H        16.12072627084485    7.15814092200352    8.40228769585589
H        15.45468005407662    6.42253618487166   10.66128040074347
H        13.16508415067658    5.57410955676295   11.05305119989742
H         8.63974578656266    6.40047741860894    7.80903333710509
H         7.69672523841292    5.69645401436421    5.64270889178588
H         8.66686414677602    3.78265636270860    4.43172268640418
H        10.58277734178529    2.55527100070332    5.38585958346726
H        11.52823739685328    3.25351695878238    7.56521381976749
H        10.64860133427049   -0.08131291413737   13.95833376209868
H        11.49574902047688    0.16552567555553   16.25073794772957
H        12.80263923297490    4.12888571653878   15.37143074322980
H        11.93022188127544    3.90324888306504   13.07350340160783
H         8.88944343317454    1.66641398762473   10.25286182137216
H         8.09367138743908   -0.44441675274924    9.11823228844721
H         9.39999224720120   -1.36756607454547    9.98334393919663
H         9.87436260204875    1.00465988803084    8.03552917782265
H        11.14945637321352    0.03913125266761    8.89414814833157

