87
CSD_code = JISHEB | q = 0 | S = 0 | Stoichiometry = C32H36N6O10S2Zn | MND = 6
Zn        9.94984432562174    0.00026236832990    3.78996809296012
S         8.62610634697363   -4.48386296168367    4.55180173243814
C         8.27927699857834   -1.98366330492091    2.86217655409814
C         9.59761502244698   -2.92243904431699    4.64137874739847
H        10.61302858124055   -3.15368549741478    4.29445022431276
O         8.51539987893217    0.36565439959970    2.55975166217772
N         9.08075761093595   -1.86917690590972    3.83587919534670
O         6.87873476905675   -0.66750377525940    1.46342169774719
C         7.83736278518725   -0.63589201326182    2.21337671835650
C         7.70404353862966   -3.24477761749367    2.29972259243793
H         7.75579554340963   -3.14588099624875    1.20879516861240
C         8.49694491459095   -4.46709602404728    2.73892201190611
H         9.51022695548806   -4.45901993610572    2.33444507404070
H         7.99778944911423   -5.39138881829372    2.45333584685135
O        11.12921491998212   -0.67904456835717    5.43905586029850
N         8.48917598996093   -1.72001628198546    6.44658925475738
H         8.42183363947313   -0.79620483792902    5.93858616472845
O        11.40920262238257   -1.52856006683949    7.45978213585688
C         9.66658544992467   -2.47745114675306    6.10727628561733
H         9.76116227859344   -3.34367513611725    6.76847300298845
C        10.86602040025140   -1.48584321341408    6.36951731033282
O         7.70885953231770   -2.96739415765813    8.19195060139411
C         5.56401587445556   -1.14816763682591    6.46211498058439
C         5.65597084798191   -0.31303574402843    5.35567072048223
H         6.39604749561963    0.47091944256994    5.32837448087146
C         6.51864726672737   -0.96218718753137    7.63081083604190
H         6.92441341313463    0.05997323460880    7.60925975258519
C         7.66021935658236   -1.93215034170509    7.40592788983803
N         5.92984780251844   -1.32856547433572    8.92156007328389
H         6.95074904762481   -2.83634140964039    8.83167745626088
H         4.92562623658301   -1.19467973351651    8.91283268619268
H         6.31528159246069   -0.74993188091673    9.65993973270592
C         4.62633067167413   -2.17285251987192    6.47392436422332
H         4.56453702314832   -2.84663352042989    7.31648404255154
C         3.84872257380226   -1.49146112226103    4.30789450552097
H         3.17983399286706   -1.62445143714567    3.47157946973668
C         3.76484902248054   -2.33490113672046    5.40225684643571
H         3.03363935326372   -3.12906868060423    5.42156686067390
C         4.80153761276459   -0.48626922418683    4.28123720001038
H         4.89318887838930    0.15481193921778    3.41878765775350
C         6.22692105099294   -3.36859267673996    2.68888094670808
H         6.12370354026268   -3.45692037483032    3.76884714612661
H         5.79933530469260   -4.25290070016386    2.22189187901824
H         5.69081832259123   -2.48936515398867    2.34718525377375
S        11.27359083068523    4.48429868834703    4.55086133469747
C        11.62050692977913    1.98405769757950    2.86191959751705
C        10.30208006514585    2.92292696132771    4.64106484921433
H         9.28664271195728    3.15410969253700    4.29412560959901
O        11.38407387098582   -0.36524064303091    2.55951937587780
N        10.81899685349157    1.86966533093080    3.83562618337657
O        13.02105339398331    0.66765513431143    1.46339440092704
C        12.06210534578671    0.63624966200504    2.21294467786445
C        12.19583397217416    3.24510702087554    2.29938279251931
H        12.14421687927452    3.14610959531710    1.20847515835376
C        11.40299517886930    4.46764900545766    2.73802789418273
H        10.38974709928772    4.45948065431912    2.33349280412635
H        11.90223476848128    5.39189880712211    2.45236114815660
O         8.77070712770426    0.67973199868599    5.43917908245653
N        11.41093232813188    1.72075414283996    6.44637555404658
H        11.47838852068602    0.79715663945824    5.93814031264556
O         8.49127243117384    1.52916465880123    7.46001479821756
C        10.23351064853816    2.47819555732729    6.10707806582535
H        10.13899714227414    3.34451369190221    6.76816380086327
C         9.03409073510517    1.48654144116192    6.36960484406669
O        12.19088720957975    2.96727461715436    8.19251441541848
C        14.33542633781694    1.14742011968671    6.46215705748232
C        14.24351803720246    0.31215285542807    5.35582072955954
H        13.50355009506816   -0.47191551805198    5.32862658997772
C        13.38064786324098    0.96175698709080    7.63074083396750
H        12.97438626950038   -0.06022853391459    7.60913420139312
C        12.23951628940800    1.93220989874623    7.40620751821501
N        13.96958413259646    1.32779117488802    8.92158591151722
H        12.94887282184813    2.83636710783353    8.83223253335187
H        14.97332508689059    1.19143190525381    8.91337702214452
H        13.58286989643247    0.74988886303611    9.65974975313666
C        15.27296308405399    2.17224617965082    6.47385518020895
H        15.33461460015269    2.84598704076116    7.31643408297283
C        16.05013606931703    1.49109538294129    4.30758252436050
H        16.71917259856893    1.62390144603322    3.47134640827167
C        16.13429806131572    2.33439348033007    5.40209157638501
H        16.86531967539410    3.12873098005052    5.42124750444261
C        15.09749755021336    0.48573032620633    4.28109396829061
H        15.00626018545663   -0.15577036016951    3.41896798618704
C        13.67292353689853    3.36889714767347    2.68865738000902
H        13.77601406565744    3.45712434597499    3.76863942846487
H        14.10057326227087    4.25323396965531    2.22177210130258
H        14.20904860389528    2.48968572170554    2.34695229252557

