129
CSD_code = JISHAV | q = 0 | S = 0 | Stoichiometry = C55H61BMnN7O4 | MND = 5
Mn        8.27323307493618   -3.03075934714597   12.52065231060034
O         9.67921341857807   -3.43719482003273   14.07860919911464
O         9.60669247451150   -2.15643500203864   12.06721881891609
O        18.66466132420546    1.25715039784628   11.70926616249398
O        17.36851964587792    2.74095598045754   10.84222071788478
N         5.50391175088450   -3.39148561085997   11.50290921161438
N         6.70766365325409   -2.84207413118734   11.24875463227222
N         5.66297014286193   -3.44060895775036   13.94727544812608
N         6.80908959185322   -2.73874198311622   13.93750740803131
N         6.42565565035543   -5.38520092590121   12.63844313444194
N         7.71118665601545   -5.01030592980886   12.50669485582521
N        17.55948645208659    1.69415720362854   11.43775541744511
C        10.78505633035794   -2.82326917022700   13.86521794996487
C        11.96884908288533   -2.83640606483999   14.64262325382039
C        13.04147269467180   -2.10174042686133   14.18365333236525
H        13.94552319593358   -2.07854957824994   14.76961684953421
C        13.02424109963311   -1.32441283640961   13.01364099323150
C        11.85902365541400   -1.29076719443833   12.24593705549854
H        11.79610775272243   -0.73524150837268   11.32186611111307
C        10.77792691174678   -2.03337589053539   12.66321542351977
C        11.99980403329315   -3.64142490649964   15.93229950881267
C        11.71418085700587   -5.11088815179003   15.60244356997650
H        10.75456904343361   -5.19931373227549   15.10188705783799
H        11.69039448465863   -5.70389091183195   16.51447124646843
H        12.48331086684713   -5.51151759991256   14.94566815850293
C        10.90367256977721   -3.11080082564800   16.86314086372107
H        11.08517157474710   -2.06598614085350   17.10640901250375
H        10.88076336810775   -3.68677864478229   17.78606645361433
H         9.93555542939112   -3.18862137428614   16.37724715615669
C        13.34447060497017   -3.55350212699101   16.65873803141242
H        14.15246556678491   -3.94520147796271   16.04449422404528
H        13.29809860496070   -4.14830666337894   17.56868039231613
H        13.57519065918377   -2.52834945923808   16.94020080837352
C        14.19380122981223   -0.55297633195932   12.61817854579994
C        15.49350630931647   -1.00794328676866   12.88351670197275
H        15.63373474077267   -1.95915718620363   13.37211947335209
C        16.59428613309470   -0.27891081372557   12.50020444311909
H        17.59643690390762   -0.63048053133169   12.69281064007651
C        16.42213121818165    0.93634246827926   11.83954726035222
C        15.14071700151346    1.41347126085080   11.56988967933344
H        15.03036510603482    2.36194826552864   11.06681691622981
C        14.04825713862023    0.67481180216382   11.95579667833121
H        13.05821928070898    1.05893888391336   11.76680560681708
C         3.17168215121812   -3.36393377487084   10.60931168430647
H         3.08549099349614   -4.44454985092990   10.51261331540363
H         2.65655347021578   -2.89280247624793    9.77675925775047
H         2.68597385014977   -3.06788047083119   11.53755730526914
C         4.59788124248896   -2.94866729391489   10.60901416012982
C         5.24388767973581   -2.08037483486868    9.75070361209623
H         4.82686444865895   -1.55771080233972    8.91442012871097
C         6.57552583813521   -2.04594866097105   10.18294363003355
C         7.68964015757014   -1.31202337673669    9.58442827679280
C         8.87755398483194   -1.96547616872363    9.26567673153530
H         8.95987688685168   -3.02923981185356    9.44539998105679
C         9.92433587347178   -1.27609135002780    8.68602010891759
H        10.83631001476180   -1.80554566836315    8.45141494415438
C         9.81250903994626    0.07882771797654    8.39220091223303
C         8.62009575679881    0.72230522792285    8.70097069948067
H         8.51105829146144    1.77458264932010    8.47766550200039
C         7.56996672176079    0.04173495892208    9.28783537419559
H         6.65325740388270    0.56117864295142    9.52749065151150
C        10.94659888510720    0.83958098849442    7.74946317011470
H        10.59971034821151    1.85928914510639    7.54710055826513
C        11.35416803969338    0.20542364487591    6.41825078277705
H        12.11203401508166    0.81481957629499    5.93120216674764
H        10.49434702465442    0.12763089127496    5.75615636521783
H        11.76330212655892   -0.79039171357288    6.56869585003530
C        12.14323739716295    0.92657158518044    8.69952916089326
H        11.84924032118596    1.41393106586383    9.62681918733943
H        12.94513408384606    1.50534230881633    8.24712643717472
H        12.52804697292020   -0.06390694449417    8.93247853365689
C         3.64440952773762   -3.78267252583809   15.37483585038069
H         2.91180746526053   -3.53266630194637   14.60938190431298
H         3.28929486880121   -3.41706574019304   16.33424364631616
H         3.72906401345671   -4.86690385650830   15.41943281513690
C         4.96125081697421   -3.16801286967924   15.06526797311745
C         5.68904336365392   -2.25593900130709   15.80215797253007
H         5.41635231707598   -1.81351873638429   16.73819114903790
C         6.84686538679729   -2.00128963543957   15.05196595954691
C         7.92061147933422   -1.06345203835190   15.35334955109923
C         8.32354456044921   -0.84140831093658   16.66672999363697
H         7.84308730710401   -1.37818685829491   17.47097641482616
C         9.35345690351805    0.03752286246347   16.94247946350987
H         9.65554061726007    0.19380976919331   17.96900780537050
C        10.01579401670124    0.71316102455487   15.92555728793965
C         9.58959150815000    0.51156301997753   14.61694360821815
H        10.07145055338266    1.03921140711775   13.80716510822663
C         8.54960482350774   -0.35033813929110   14.33345679086196
H         8.19288360584865   -0.45331690437647   13.31162065071133
C        11.16336984873144    1.63938377964717   16.24132763692699
H        11.30860783917713    1.64379878573417   17.32772358186257
C        12.45235299528778    1.13521812868362   15.58924459674653
H        12.65595016317215    0.11135382615114   15.89419693191750
H        13.29367393110610    1.76097401427605   15.87887666547597
H        12.37070866913318    1.14988788709451   14.50582830117685
C        10.85392661684871    3.07106348727748   15.79869339233048
H        10.73534983303573    3.12492404865754   14.71951167515240
H        11.66453090568396    3.73642162738978   16.08744139848487
H         9.93482817903101    3.42192100472981   16.26350456132812
C         5.05352989990668   -7.46420181731726   12.83400365286618
H         4.54888586964917   -7.18747198208434   13.75781417712388
H         5.24706189499126   -8.53317733187876   12.84543400384928
H         4.38800120608716   -7.23494463697978   12.00376642317701
C         6.33774946430304   -6.72952267598617   12.69716358629711
C         7.61730222992696   -7.23588354440178   12.60327044067138
H         7.90728894547936   -8.26641309109194   12.60006631287098
C         8.45905095083487   -6.12037603434788   12.47899288275035
C         9.90645339179028   -6.11748320527349   12.30953167492834
C        10.53273715151246   -5.14196581822052   11.53631205052566
H         9.92241572019283   -4.41125259523765   11.01504500572366
C        11.90522343756580   -5.11596559715433   11.40332187105055
H        12.36352320098316   -4.33589575682633   10.81348402003011
C        12.69889933191192   -6.07977832203708   12.01599611780835
C        12.06955333763649   -7.07822022398135   12.74876559743831
H        12.66612529070299   -7.84633106080827   13.22144350109916
C        10.69604515562045   -7.10007763790528   12.90062014505880
H        10.23389283977755   -7.86882228644558   13.50143575169846
C        14.20124288039314   -6.04758815625748   11.88936922994225
H        14.61199736632391   -6.87186210856739   12.48376217545036
C        14.62860323192251   -6.25180784614481   10.43411903327707
H        14.23243961142215   -7.18955268634687   10.05025244903566
H        15.71354150022458   -6.27791552619106   10.36065311195131
H        14.26207506582339   -5.44211472260631    9.80813464889051
C        14.76161533105640   -4.73472378489918   12.44002592290230
H        15.84937670344618   -4.75441172008577   12.42317360786406
H        14.42744825689990   -4.58288301332210   13.46398998185531
H        14.42259821484439   -3.88834509453151   11.84796628013826
B         5.32800445634001   -4.31440549846996   12.72703315039748
H         4.24899564294290   -4.77758190186962   12.78288130367880

