52
CSD_code = JISJOK | q = 0 | S = 0 | Stoichiometry = C27H21AuNPS | MND = 2
Au       -0.84212990661661    0.37039261813248    3.35221352478386
S         1.16168433950426   -0.83831323818630    3.60366177418750
P        -2.56577579242612    1.83281072614959    3.51677427849830
N        -1.11160068001792   -1.28681740296914    1.57353345548567
C         1.06002141983341   -1.99177546380780    2.32201180785363
C         2.12526600839972   -2.86320614259094    2.15185728431784
C         2.13676726422077   -3.82592027382164    1.14934217699436
C         1.08027093722479   -3.94770147014325    0.28083702337130
C        -0.02645373267258   -3.09381650573887    0.40948773401625
C        -1.14398308377313   -3.16959053099276   -0.44751011944579
C        -2.20297817298791   -2.32002738979103   -0.27228057309478
C        -2.13767012669284   -1.38680084741688    0.76849287982878
C        -0.05360562987005   -2.10203154318369    1.43683456478843
C        -2.07441163796066    3.57959318818237    3.56503856895103
C        -0.91172518071979    3.86984504353284    4.27366442668153
C        -0.48049052153206    5.17744994858026    4.39071662135219
C        -1.20338347842397    6.19870905006290    3.79440760369306
C        -2.35653034546729    5.91125723979863    3.08203579810324
C        -2.79800387101445    4.60527194526113    2.96592034421371
C        -3.76937994291887    1.75687218767250    2.16639314103399
C        -3.30853551124385    2.10159932936810    0.89551168104754
C        -4.13829993348568    1.97137959790099   -0.20042829889691
C        -5.42560038396916    1.47957432917133   -0.03876175506635
C        -5.87769976344374    1.11468104778760    1.21850880882002
C        -5.05264724407747    1.24520550967551    2.32251888659649
C        -3.57206610029992    1.67795901870500    5.01950707143382
C        -4.48127795727345    2.66427979629156    5.39290089031000
C        -5.22344165788289    2.50799570887903    6.54794510169707
C        -5.06274307903531    1.37513057641892    7.33175538216909
C        -4.15756451389992    0.39414089023757    6.96224027427462
C        -3.40896566712662    0.54517639807696    5.80838066076521
H         2.96127984341865   -2.77464701142782    2.82833832077682
H         2.99126564700537   -4.48121169424401    1.05887790846142
H         1.08108347475768   -4.69161184850825   -0.50240442852058
H        -1.14546507889568   -3.90867875311401   -1.23736891079741
H        -3.07259701267752   -2.35603686150599   -0.91068572229827
H        -2.95337373745355   -0.69787848112856    0.94873090494423
H        -0.34978786751666    3.05779785199131    4.71858232019659
H         0.42181670753204    5.40044241232512    4.93998902347517
H        -0.86460149028119    7.22050231382997    3.87953910171012
H        -2.91578279262450    6.70830171232197    2.61402188805821
H        -3.69548831188004    4.38232645346903    2.40479242706246
H        -2.29543457832459    2.46742045629612    0.78310657633900
H        -3.78203261474035    2.24460947057886   -1.18271606045925
H        -6.07345288471734    1.37390341935910   -0.89631005917347
H        -6.87650503109261    0.72190866604095    1.34090069806333
H        -4.59859914432134    3.54781462162152    4.78039565968201
H        -5.92832296357360    3.27239251265565    6.84092423941686
H        -5.64339904181700    1.26019258554525    8.23498711428892
H        -4.03022194220469   -0.48544363768725    7.57572608091784
H        -2.68974237597752   -0.20738147419827    5.50919157356060
H        -5.40238485889116    0.95305394448442    3.30317032558794

