31
CSD_code = JISKIF | q = 0 | S = 0 | Stoichiometry = C16H8N2O4W | MND = 6
W         1.25191520128194    2.17060887123351    2.48764097810941
N         1.77763225031297    2.86172054915947    0.52345295506313
N         0.71989472661933    4.25077330895431    2.54033300578457
C         2.29750503023063    2.16203948789701   -0.47058325206229
C         2.61466979086419    2.71355293383686   -1.71181840889448
C         2.38631751469683    4.05174336433489   -1.93991071094395
C         1.55899039323955    6.21726579399603   -1.03421011054089
C         1.02279208177909    6.92314466839676   -0.00928033728064
C         0.15410568590557    6.98696286176720    2.32217672337641
C        -0.10751847224166    6.28856913518670    3.47924777030779
C         0.19014828291409    4.92752055902643    3.54497611792967
C         0.97865483864867    4.92203419126760    1.39457924352941
C         1.54485318326048    4.17788010028861    0.31405792884842
C         1.83456334937431    4.82590817947184   -0.90689152498928
C         0.71399730358315    6.29993457273722    1.23341169282158
C         1.80386177478693    0.28796472730772    2.26082780827249
O         2.13091995810007   -0.80345575046674    2.12194414934128
C         0.71695713658990    1.71429422352916    4.33328425527092
O         0.40396921399294    1.45697683326413    5.40727222688975
C         3.08580795733174    2.62557600608691    3.13043922212785
O         4.13768659974135    2.86480424156205    3.50782016941095
C        -0.58222299876165    1.71107770446494    1.84838335857428
O        -1.63277135890304    1.42417899140064    1.50188661256574
H         2.47370647599322    1.11131305230489   -0.27836122570812
H         3.03661629649084    2.08406745329758   -2.47923152955232
H         2.62144845909669    4.51004118478673   -2.88863512724588
H         1.79028724115198    6.69590173748276   -1.97430306221698
H         0.81652909202996    7.97825558002183   -0.11231653206324
H        -0.06208105806084    8.04136589188143    2.23899918074250
H        -0.53884703772679    6.77910590538270    4.33748490703965
H        -0.00988891232287    4.36747364013894    4.44962351549161

