37
CSD_code = JISPOR | q = 0 | S = 0 | Stoichiometry = C17H15ClN2OPt | MND = 4
Pt        4.48828062778965    4.83373250831172    1.70234930055032
Cl        4.61381249022418    5.91463945486545   -0.39365175996705
N         4.68706955553583    6.45214658613701    2.81348406707385
N         4.28992202894990    3.21647081087747    0.62461969148022
O         3.98969993365231    0.21048784804605   -2.19423280447087
C         4.85682990374393    7.67823305886079    2.32289149699050
H         4.88381638144815    7.76255133122106    1.24336555009448
C         4.99126360486324    8.79340151294776    3.12944749087964
H         5.12687222839484    9.76603572264828    2.68512427019316
C         4.94727840217780    8.62962534540921    4.50636115878611
H         5.04813197135810    9.47772943922562    5.16688514620204
C         4.77212242727976    7.35853513612941    5.01906196752214
H         4.73520307258025    7.20344572993674    6.08509296260324
C         4.64310334636852    6.27117754069296    4.15707669212970
C         4.45907277200330    4.88516026096794    4.56916298870946
C         4.37983322271998    4.46216871178090    5.89467244619097
H         4.45111543819256    5.17180765416099    6.70601057168414
C         4.20748048836135    3.12206979387476    6.17889201452951
H         4.14517865355190    2.79045701438625    7.20516397512031
C         4.11505648876729    2.20347707509912    5.14462442786756
H         3.98140656601063    1.15449537559921    5.37000875368725
C         4.19242443008535    2.62172148598077    3.82567463999764
H         4.11689178593624    1.87889661706945    3.04088863561279
C         4.36493658563024    3.96433363359151    3.50220117411080
C         3.08711364947323    2.82186549096717    0.20935503048003
H         2.23558219971371    3.33381679890141    0.64584869005066
C         2.89888336063636    1.82580377977197   -0.72818194635514
H         1.89589414802691    1.56455482641150   -1.02250462947931
C         4.01570850617984    1.19287597773794   -1.27651635990677
C         5.27634376672941    1.61050931253905   -0.82955063890132
H         6.15876967678096    1.14533843662759   -1.23627196698854
C         5.36530717250632    2.61256676797112    0.10670356164890
H         6.32977077646866    2.96208691231971    0.45967821506021
C         2.74225368126703   -0.22679053389319   -2.68823475013024
H         2.97088697331498   -1.00434482869427   -3.41459985493008
H         2.20289809198375    0.58544987193455   -3.18366643242449
H         2.12248559129309   -0.64653246041765   -1.89033377570226

