44
CSD_code = JITBOD | q = 0 | S = 0 | Stoichiometry = C17H21O4PW | MND = 8
W        -3.87248998595550    1.55401911230600    3.30939440946990
P        -3.20754986372723    2.93634999281084    5.11872267415334
O        -6.47579701673650    2.85109921994713    2.14840571075527
O        -1.88633872616184    3.79518749429864    4.83720527282804
O        -2.77657860667573    2.19426208069826    6.47691140115490
O        -4.23757090440632    3.99444260677483    5.77983757752445
C        -5.69906955528986    1.44392100935924    4.05315864144732
C        -6.84929363098717    1.16450254885275    4.88546467292758
C        -6.98483912117651    1.76584993647058    6.13771391788762
C        -8.08269041383192    1.49412821326329    6.93096594257928
C        -9.05643745892394    0.61504244515195    6.48851792198380
C        -7.84079023147147    0.27924817921111    4.43123141190011
C        -7.69773536634343   -0.35153085662592    3.08058006513217
C        -8.92784732737582    0.01452121706875    5.24687320372335
C        -5.74902996693144    2.28320970791783    2.90994619478420
C        -3.41441884871226    0.86675090285230    1.16335570839669
C        -2.94159412020554    2.21308763889459    1.21544697973500
C        -1.90055227552441    2.27276846259228    2.14956700579311
C        -1.74530312425041    0.99032897620619    2.72982983427596
C        -2.65357978555837    0.09907591355735    2.07781679296328
C        -1.28992167390891    4.57152038599800    5.87559956864753
C        -3.47143284753241    1.02620668303917    6.88673536100632
C        -5.00495042618835    4.86858810489834    4.96669731950820
H        -6.22081226088581    2.45420916222946    6.47235494904591
H        -8.17800473592302    1.96935122309363    7.89667925765130
H        -9.91502058959504    0.39840294369028    7.10669786818026
H        -9.69035202741573   -0.66958685428389    4.90136124196708
H        -8.42752021137916   -1.14501439186779    2.93887597332026
H        -7.84237465082538    0.39800848622789    2.30169951285804
H        -6.69152221991871   -0.76068296641875    2.95934249955094
H        -4.11201725190847    0.47945905118570    0.42968008954892
H        -3.28465590621421    3.01866549944336    0.58356589328116
H        -1.29323996183373    3.13826355219261    2.36819946282448
H        -0.91687617456552    0.68648861628822    3.35949453827335
H        -2.64588023072959   -0.98104735825129    2.15466580792475
H        -0.70882856533063    5.35341826825826    5.38741306099990
H        -2.05248141069289    5.01628466148082    6.51630555843453
H        -0.63550340240758    3.94457662365588    6.48118913294892
H        -2.75665393886712    0.39496664660627    7.41499061414103
H        -4.29387101398553    1.28833603932145    7.55347184863135
H        -3.87318980564616    0.49260096615652    6.01238613984760
H        -5.74972571677579    5.32494321852440    5.61779113403153
H        -4.37269195638727    5.64169111690981    4.52646261624965
H        -5.50156669078424    4.31338552013473    4.16779521171460

