29
CSD_code = JITCEX | q = 0 | S = 0 | Stoichiometry = C14H10ClN3Pd | MND = 4
Pd        1.08854788174062    0.85888486578841    2.22698176768610
Cl        1.30082238262315   -0.53774567745722    3.94083455538723
N        -0.83164974609989    0.46338376857436    1.82896834397515
C        -1.66244149256861   -0.36960306212024    2.42442784308286
H        -1.26112561693533   -0.93553296890752    3.25826578417446
C        -2.99366017608089   -0.52579137114487    2.01382179835945
H        -3.62666415078384   -1.22273533104910    2.53950552058010
C        -3.46754326051708    0.20515757692334    0.95684538646695
H        -4.48796587881154    0.10703257726507    0.61727986404837
C        -2.60430469461560    1.10655857812309    0.29619855743473
C        -1.27402388637113    1.20649546805909    0.77158528204150
C        -0.35355697566284    2.10494226114482    0.14009310728823
C        -0.78446090378703    2.86645804689165   -0.93576472004802
H        -0.10523927028184    3.54742066549964   -1.42473238356470
C        -2.09863065890778    2.75641429354943   -1.39240253090108
H        -2.40919839160316    3.36068826242376   -2.23158946064318
C        -2.99434199305183    1.90251708973242   -0.79960918366748
H        -4.00794513065182    1.82727462433594   -1.16201175679075
N         0.89144216007639    2.09512400568037    0.70697684213193
C         1.97417736356181    2.77694086571260    0.40547432371221
H         2.01202750220826    3.49734096538232   -0.40765273969837
C         3.08707068950899    2.51325914632525    1.20834216136862
C         4.41340251540486    2.99956028546143    1.24129668595991
H         4.82804535739307    3.73448041834266    0.57907609511003
C         5.04265633275097    2.34670728977048    2.27704000850596
H         6.05961275967071    2.46446156636127    2.59646232205902
C         4.09615473047449    1.47749363553404    2.85632884419174
H         4.23391487073960    0.80954151066661    3.68948296774702
N         2.93697768057258    1.57227064313193    2.22737471400845

