42
CSD_code = JITCOF | q = 0 | S = 0 | Stoichiometry = C21H16N2NiO2 | MND = 4
Ni        9.30771511806938    4.83723511127538    5.56547659756395
O         9.14983053478506    4.50994450438498    3.76318435107829
O         8.11043383862771    3.49031677110035    5.93061691218203
N        10.52019553389237    6.19885189002702    5.15626638798519
N         9.44610849871394    5.13820758110536    7.40431843347654
C         9.89846200966303    5.31380020566332    3.07416475634458
C        10.00490973900200    5.31923213122872    1.68348916100425
H         9.43000966596360    4.60905393492377    1.11147334795761
C        10.84388161244213    6.23156553595719    1.05085574415783
H        10.90625584827951    6.21179995509887   -0.02778066616119
C        11.59307616908337    7.15369637181091    1.74846059418432
H        12.23624177631214    7.85092930285009    1.23446633199365
C        11.52172475970642    7.18936118191284    3.14876442282818
C        10.67339100901725    6.26590152521078    3.80173666000712
C        12.22552873190096    8.07216797199180    3.98985354024887
H        12.89181388135657    8.80711013687276    3.56166202693430
C        12.05770020788281    7.98909464565157    5.34338914229657
H        12.60283229085404    8.67134004205618    5.97545754938766
C        11.19212746726690    7.03551733023679    5.92878324966896
C        11.08863651346639    7.03145091852026    7.45145083953535
C        12.50578051418320    6.75333894596236    7.99555771655076
H        12.82465127840424    5.75966266807509    7.68643547566496
H        12.52800632983592    6.79781371278860    9.07988247109726
H        13.22257964816748    7.47532426498768    7.61692109566151
C        10.58597371237815    8.42855887755592    7.87161555324548
H        11.24453515596677    9.21091946981500    7.50728293365736
H        10.52725314854969    8.51872345422581    8.95178795919736
H         9.59274857784544    8.59647614080936    7.45933619670091
C        10.15782332855158    6.00973611917243    8.09870795133389
C        10.07432849217478    6.01664846348692    9.51087875804151
H        10.65579091722784    6.72820085300931   10.07460504247871
C         9.27287781006848    5.14116020277370   10.18787784834861
H         9.22280823911369    5.16203489195070   11.26697666247527
C         8.50681880558331    4.20442927574799    9.46831835975198
C         7.64414042953065    3.24724723295073   10.02225484712076
H         7.53256143803950    3.19422205373066   11.09406212604571
C         6.95400672543532    2.39031162374427    9.19300154141616
H         6.29191878974981    1.65634743305330    9.62964507154357
C         7.07631458651004    2.43240202918553    7.80746909428698
H         6.52370160624258    1.74886482271489    7.18339138705809
C         7.92177447313971    3.36538063901568    7.20735959818524
C         8.63903078701632    4.25541977736521    8.06164292746387

