34
CSD_code = JITCIY | q = 1 | S = 0 | Stoichiometry = C13H13N4NiOS2(1+) | MND = 4
Ni        4.54232148474599   17.16292210004110    2.27565386085133
S         6.39868661623639   17.06160794570198    1.15368453172193
S         6.96277275063949   15.13074309000492   -1.00207831803018
N         5.20679473582767   18.60023894116125    3.27319862452158
N         1.84035351461416   16.55096168397841    3.19972383427295
N         3.91918935932625   15.73905987158472    1.26942821987992
N         4.69233474463035   15.20267731881967    0.33149442056330
O         2.92665048094121   17.26243717543673    3.28149049014399
C         5.71716767364308   18.37719297671739    4.48431116202457
C         6.13681265109001   19.40836922514733    5.30635257171092
C         6.02329699505010   20.71433122315970    4.85513860959793
C         5.49008279399613   20.93834661272877    3.59517868950240
C         5.09400797901279   19.85322285221213    2.83268572066310
C         0.84270531036009   16.86276279246478    4.04926588016300
C        -0.34535631293035   16.18069556553970    4.05396760565729
C        -0.53003737493504   15.13059726011654    3.15227419896512
C         0.49060520848294   14.81773350476953    2.28918798103824
C         1.70131095525581   15.53337545862668    2.30388733118831
C         2.73828238032004   15.18155640399164    1.39490328175996
C         5.87655583458739   15.73940810250580    0.18403825210828
C         5.98449943281754   13.78652608946818   -1.72691124817557
H         5.79868879144557   17.34257793730805    4.80091045355954
H         6.54768793226754   19.18774289271720    6.27808391277140
H         6.34679174388167   21.53929866349370    5.47059286366228
H         5.38581128627817   21.93701420006812    3.20289867744911
H         4.68384192299240   19.99061645120377    1.83798684935825
H         1.05769150388308   17.68443565980601    4.71568550487422
H        -1.11823064095341   16.46163380588121    4.74963634352222
H        -1.45492461843310   14.57838354349554    3.13547294205667
H         0.38509069847257   14.01361573301176    1.57898665416042
H         2.52886383300205   14.35320011937761    0.72362948890497
H         6.59902801827001   13.35352631432245   -2.50929183143274
H         5.06909937645569   14.19271961951364   -2.14237840275432
H         5.76682293872561   13.04896886562447   -0.96238915625951

