63
CSD_code = JITHAY | q = 0 | S = 0 | Stoichiometry = C26H22N4O10Zn | MND = 6
C         3.01301343659073    0.87864111206665    5.02599843372061
C         3.10371305197162    1.19920677359907    3.68192639220630
H         3.22624935044837    0.40888509085391    2.96245178292398
C         2.99562891041773    2.51620751339874    3.24038920297531
C         2.79980661490372    3.53202422713437    4.18048526474232
H         2.71338594755400    4.55092859766812    3.83971159844334
C         2.72310013062831    3.21669279066873    5.51982359204125
H         2.57532926693914    4.00579618266611    6.24337285367963
C         2.82816024290477    1.90161923936030    5.96397324779331
C         2.73772266151213    1.58819601765602    7.42348735322824
H         2.62461870510342    2.49625526970239    8.00996040410426
H         3.63225780633676    1.06410586633487    7.75800738140262
H         1.88547681397949    0.93845415792119    7.62060698293700
C         3.11152405708671   -0.55236266926690    5.45381275670459
H         3.16773109315689   -1.21008446169400    4.59072101672192
H         2.24308325180814   -0.83552743454544    6.04661016476062
H         3.99606711107384   -0.70897367088863    6.07123044983474
C         3.08178724707062    2.86403405430934    1.84052269587921
C         3.13640707351163    4.04154889360961    0.06382774465660
C         3.45979093391732    2.68340559535664   -0.28017724337814
C         4.04764788789518    2.16857723254500   -1.56655609102661
C         3.88273426357529    5.19410297762185   -0.64691773330143
N         3.46137874237329    1.98096310487182    0.82184511525455
N         2.86445310939015    4.08289465572339    1.41566004541975
O         4.38357363444668    0.94798567115859   -1.51040298454907
O         4.21454941954299    2.95151732761635   -2.48323611380429
O         2.64655331052789    5.06639804432354   -0.85996931696385
O         4.90604033654870    5.73309009013571   -0.75171018611767
O         5.72713898044186   -0.17061092861943    0.77419630840051
H         6.30153289222051    0.12705630464785    0.05921342872963
H         5.90764220603181    0.37795691047514    1.54514235229360
Zn        3.66385883241821    0.00224820417861    0.00054053236711
C         4.28241650557849   -0.88154911281462   -5.02998778314534
C         4.20814567298781   -1.19840807271837   -3.68398005969896
H         4.08947768391577   -0.40667799312575   -2.96533923708241
C         4.32840184877551   -2.51344276898828   -3.23987136100391
C         4.52090381978936   -3.53085668930278   -4.17886207443617
H         4.61719498139189   -4.54814008047883   -3.83584833490610
C         4.58051878325468   -3.21935171938841   -5.51993027939847
H         4.72479823783812   -4.00979332637515   -6.24272944079482
C         4.46187183549307   -1.90641122097162   -5.96690528176438
C         4.53221848353040   -1.59740465523747   -7.42849090030991
H         4.64062863905231   -2.50706992194158   -8.01335834778902
H         3.63159288126981   -1.07739474284676   -7.75290063995538
H         5.37969024181234   -0.94559932314014   -7.63901725567210
C         4.17199481403155    0.54765440148121   -5.46100990554952
H         4.12786081954549    1.20800154667236   -4.59919491935561
H         5.02956877139087    0.83178797483825   -6.06896214425121
H         3.27679368960429    0.69917636000243   -6.06426245801760
C         4.25632820813483   -2.85826167894584   -1.83844455285519
C         4.22286928041390   -4.03209051885869   -0.05878990902008
C         3.88466236904420   -2.67703566202399    0.28330658287771
C         3.29441017547938   -2.16429157455970    1.56945823491640
C         3.49486146135417   -5.19359482928215    0.65591384193730
N         3.87104280755788   -1.97720212235885   -0.82029867393674
N         4.49007395185838   -4.07334372970665   -1.41168702109281
O         2.94651950702492   -0.94715577502632    1.50974206505025
O         3.13660196859100   -2.94553914473666    2.48911048768764
O         4.72983704548674   -5.04858766604875    0.86510317726662
O         2.47950730696324   -5.74654691619641    0.76520489846499
O         1.60166053951792    0.17582659992949   -0.77212550128448
H         1.02915665225353   -0.12509221447218   -0.05699050808517
H         1.42293369473869   -0.37283816396692   -1.54340013089494

