67
CSD_code = JITHEC | q = 0 | S = 0 | Stoichiometry = C26H26N4NiO10 | MND = 6
Ni        2.87305920869895   -0.00031388470092   -0.00024159026646
O         1.22525900632044    0.22925545460967   -0.86982462390949
O         1.48917905133747   -0.72948971202871    1.88068050931574
C         0.91220418427021    1.43305197884769   -1.11013678728252
N         2.74650089833037    1.91611161961908    0.41556342999927
O         0.08235197851481    4.44258961778048   -1.86346227919893
H        -0.03497286850697    3.43601194260104   -1.90547931208950
C         1.78723638829649    2.41999485129852   -0.41843585292802
O        -0.02940978649404    1.81821524333252   -1.80622248997239
C         1.84358682128387    3.79385348752926   -0.40044812129407
N         2.86443189135468    4.09920498137424    0.45750000232391
C         3.39035951469325    2.95192097769206    0.94259602544194
C         4.45541807407244    2.90179666080178    1.92511432055468
O         1.33774624581266    6.01286994261588   -0.90655289591870
C         1.05845005973854    4.85043736599447   -1.08754369060996
C         6.43961046117040    3.87551020637780    2.91550797657736
C         5.41508085463727    3.91287779366629    1.98537741514430
H         5.38217701015913    4.72750875429215    1.27500483778047
C         6.51162786331536    2.80298714538124    3.81382872364998
C         5.54619660310850    1.80555294058416    3.75695461127163
H         5.60119827875098    0.97660458525506    4.44622026623960
C         4.52357288528791    1.84627506420751    2.83212550383272
H         3.78024066725827    1.06606303877223    2.80119159962657
C         7.46184748257059    4.96910930917723    2.95216596430208
H         7.25651254628086    5.71866071262638    2.19241439972065
H         8.45904223763472    4.56604903954034    2.78036752153149
H         7.46661090596787    5.45571548362630    3.92679131404853
C         7.61399203168729    2.72937189357062    4.82131824537694
H         8.58368051322370    2.71467266402251    4.32518551621901
H         7.52239353390841    1.83224060448729    5.42697286569749
H         7.59333481525513    3.59854562491612    5.47828883266254
H         3.13057165070593    5.04664675358131    0.68235745451668
H         1.27708460292992    0.04842370793446    2.40502587200998
H         0.70722961693122   -0.94123113817602    1.35788606301977
O         4.52091277201816   -0.22998153304797    0.86933984210471
O         4.25891912062782    0.72858066954099   -1.87990889983481
C         4.83364875388036   -1.43378854343949    1.11004342287618
N         2.99949750538319   -1.91689202428858   -0.41579883589137
O         5.66284130953493   -4.44306804994409    1.86433368149772
H         5.78000773437215   -3.43642187484649    1.90637111443127
C         3.95850005894254   -2.42071722893677    0.41852788391078
O         5.77517588186967   -1.81891515990506    1.80629785707678
C         3.90178468960297   -3.79456209515658    0.40103409457484
N         2.88115492140320   -4.09998499394599   -0.45716218274251
C         2.35555102994968   -2.95272446244871   -0.94267936523216
C         1.29070091807415   -2.90232693135390   -1.92540901750582
O         4.40746082384650   -6.01350287767756    0.90765281572529
C         4.68634243834967   -4.85102094239226    1.08900465953428
C        -0.69411538260307   -3.87465483254981   -2.91586164309547
C         0.33029374648615   -3.91269109758414   -1.98560670149873
H         0.36249551712856   -4.72722385575562   -1.27508824275147
C        -0.76512497563042   -2.80229244910040   -3.81444853604464
C         0.20111011216853   -1.80562836339608   -3.75768893524008
H         0.14689272274638   -0.97681508372343   -4.44717692622012
C         1.22349938104446   -1.84692852411946   -2.83264247071548
H         1.96743072930530   -1.06728119961574   -2.80170013424852
C        -1.71735982374251   -4.96732286569179   -2.95234784224533
H        -1.51284860245236   -5.71684462964576   -2.19234582630528
H        -2.71419537678070   -4.56325797216288   -2.78080653401986
H        -1.72245991147312   -5.45420547789597   -3.92683166689960
C        -1.86728802431612   -2.72798274677249   -4.82210570959409
H        -2.83703068288265   -2.71232917172799   -4.32610726601671
H        -1.77483717600504   -1.83107509121419   -5.42795630978439
H        -1.84728999208819   -3.59732979129024   -5.47886725592117
H         2.61487342605635   -5.04745674573497   -0.68172858833142
H         4.47057092406795   -0.04940017846302   -2.40439853438108
H         5.04048020260880    0.93895141306846   -1.35602957460658

