40
CSD_code = JITKIG | q = 0 | S = 0 | Stoichiometry = C14H22MoSSi2 | MND = 12
Mo        0.62165951783303    0.22733443184180   16.08216453994658
Si       -1.16238854470448   -0.75033343305294   17.62413779001836
Si       -1.61456016799652    1.22735976038863   15.36052127890495
S        -2.93897993946461    0.21883235185169   16.78506677913549
C         2.13571641734506   -1.41405923205305   15.30475236786141
C         0.91982952150274   -2.03610083115724   15.59975279793243
C        -0.07791889917899   -1.46965106379694   14.74161203552472
C         0.58043909310389   -0.53493646852445   13.87832150756077
C         1.92742840160289   -0.49227289767908   14.24826204081891
C         2.55074216862585    0.92811272828895   17.25343365777876
C         1.45796334767844    0.98483439182119   18.12276409349582
C         0.52414123497366    1.92894840499436   17.58523562921009
C         1.11051076807871    2.48641340734843   16.40281133626731
C         2.33747135535495    1.85009910333159   16.19786032295598
C        -1.54574093067738   -2.62851659291629   17.65024932305036
C        -1.18180082549288   -0.36118397124538   19.50142153754567
C        -1.97990944384257    3.10117588798825   15.53882484490526
C        -2.34278944390347    0.89085739800738   13.61958396870912
H         3.09831645846647   -1.68123698829577   15.71944934314913
H         0.78986470825380   -2.89278498938097   16.24017427312872
H        -1.04230596909052   -1.92301698043451   14.53650388544600
H         0.15246020725844   -0.07202122928758   13.00451940179541
H         2.70681739591795    0.05166784286473   13.73181911156609
H         3.46431592703254    0.37432933299299   17.42320589711738
H         1.40163035002908    0.52465629940146   19.09550587053468
H        -0.27494054939727    2.39423124089927   18.15275385051743
H         0.74813305650668    3.34581732510658   15.86316320646424
H         3.06283016191435    2.10736637772154   15.43778884913853
H        -2.46763797334133   -2.79027794889126   18.19921977969101
H        -0.76148591948226   -3.18069371530087   18.15786076491636
H        -1.68073629946493   -3.05403456284450   16.66186420727670
H        -2.13533986738558   -0.67431269672113   19.91400724958493
H        -1.06541457938401    0.69376243977890   19.72447521019131
H        -0.40396240796055   -0.90964254448897   20.02254805644964
H        -1.70932024660950    3.50285745700911   16.50921045491773
H        -3.04498132037499    3.26323775743166   15.40877198745461
H        -1.46570987900510    3.67489389261983   14.77465111626269
H        -2.33500126183279   -0.15837076030096   13.34499193159420
H        -1.80808040403216    1.44929354402844   12.85802569986245
H        -3.37636521885537    1.22096553065586   13.60211400131824

