52
CSD_code = JITKAY | q = 0 | S = 0 | Stoichiometry = C22H23Cl2NO2PRe | MND = 6
Re        9.41133610190619   -0.47432560567464    7.21086750144133
Cl       10.98254066845976   -0.29340703984325    5.47869527563889
Cl        7.75768947706771    0.47597295242152    5.93827118973902
P         7.77789627079060   -0.96653910617016    8.99367981449168
O         9.04607436626434   -2.16822441135556    6.65092245347131
O         9.91199931436841    0.89229585645186    8.00973445904154
N        11.16444666150522   -1.64208161011583    8.37321724234117
C         9.23189274989937   -3.44666384001263    6.87138734857989
C         8.24926655040510   -4.39263042457895    6.55993653404997
C         8.43908226995881   -5.72232450808658    6.87493905351368
C         9.60464441520317   -6.13511996734101    7.49923860032191
C        10.59706242949691   -5.21105248556964    7.78378239620475
C        10.43588773121211   -3.87189221612996    7.47589611318140
C        11.54905975506032   -2.87463583353966    7.66755240621314
C        11.08626567187667   -1.76770517905141    9.82890644260253
C         9.80211069541046   -2.42756393185638   10.34633533677600
C         8.64303761289305   -1.44488034270099   10.54917217196825
C         6.70790264545652    0.39264665508189    9.53819508237713
C         7.10495053233315    1.70091176801011    9.28288043521419
C         6.30914300408477    2.75291051608929    9.69985870497437
C         5.12087315059590    2.50242604494992   10.36702393744003
C         4.72400069262412    1.19852595859829   10.61914611885019
C         5.51304224695549    0.14102381736379   10.20606239678275
C         6.61315483064407   -2.29389291249241    8.59919470875347
C         6.55833152169039   -3.51995424860052    9.25132731267719
C         5.64195950215032   -4.47412351706307    8.84300014571928
C         4.78543001047606   -4.21407325205991    7.78681692210084
C         4.84486149334275   -2.99479822559025    7.12802362983733
C         5.75724603066075   -2.03727629412724    7.52745647462104
H        11.88063404088413   -0.94787712886732    8.16001470481400
H         7.34681873498500   -4.05509032984283    6.07340527288591
H         7.67050377907016   -6.44041130975650    6.63173945146506
H         9.74938470811311   -7.17458394223109    7.74994758768314
H        11.51910335258088   -5.53646987657871    8.24543421580318
H        12.38983763264036   -3.35924888900770    8.18426887949068
H        11.88739334651853   -2.56222682429292    6.67151141744536
H        11.94676435551770   -2.35355321353853   10.18457546542361
H        11.16138048991905   -0.76058969494361   10.24686427755831
H         9.51148819999976   -3.22739177423035    9.66195612313921
H        10.03027028215448   -2.88572555182193   11.31212205654142
H         7.89782605066172   -1.85934397360811   11.23497335432094
H         9.01583682834446   -0.51348911018922   10.98575758526669
H         8.02894705238897    1.87804356393555    8.74666831339572
H         6.61232217522157    3.76860252313488    9.49691804719376
H         4.49728267526577    3.32409281389033   10.68657791557692
H         3.79454705781298    1.00562120416996   11.13440061645569
H         5.20043065975090   -0.87773886337418   10.39088001784875
H         7.22253975136603   -3.74025023885522   10.07396651886852
H         5.60156575944803   -5.42632078844479    9.35115543345374
H         4.07542266794699   -4.96444117911447    7.47223590873302
H         4.18436770580539   -2.79447100102073    6.29770703970869
H         5.83274429081760   -1.08938503241192    7.00869958800592

