122
CSD_code = JITNUW | q = 1 | S = 0 | Stoichiometry = C67H50CuN2P2(1+) | MND = 4
Cu        3.80001840534743    3.81570761234171    7.13838382542987
P         5.75976746448230    3.51635492755927    8.30830085298503
P         2.19159459612389    5.08885043354484    7.98384312468380
N         4.66242575989372    4.48334387487414    5.32526748875630
N         3.75308425177822    1.92581534917767    6.32321082975356
C         5.20800399115273    5.58668068199072    4.76592726315967
C         4.91225523962845    6.84133895498706    5.33325767717485
H         4.23130557985251    6.86735433741665    6.17379387437258
C         5.47294687388153    7.97904237508229    4.82261329824384
H         5.24587417466727    8.93985292758137    5.25871285398676
C         6.35350074601725    7.90161891205511    3.73371480473717
H         6.80714286812384    8.80429631361842    3.35423470952235
C         6.63643428298194    6.69725964286331    3.14691270010265
H         7.31558605011738    6.64796161451255    2.30940663856276
C         6.05877971179088    5.50318741677494    3.62331759894079
C         6.31495625946308    4.23274307205431    3.01681069656835
C         5.74279344592221    3.13408333493591    3.61286089815314
C         4.93752420008366    3.33951081276018    4.75102783170291
C         4.45835440003470    2.07256844700097    5.22762004220011
C         4.94108659344357    1.05197451272152    4.38406314700133
C         5.76303669067934    1.66459471430716    3.27877024172639
H         5.32724098719964    1.48483104873182    2.29299507763427
H         6.77364654579858    1.25319336300365    3.26253452847932
C         3.44547296573923    0.65475088288229    6.67479579810674
C         2.68124765514082    0.44173761373101    7.83631707783530
H         2.36489174501490    1.30826135028741    8.39599498884545
C         2.34812152676710   -0.82575240990475    8.22604454741340
H         1.76257911248882   -0.98257907652854    9.11884011792374
C         2.75135923231565   -1.92671499982715    7.45802631950622
H         2.46279546226532   -2.92117514923570    7.76184884249259
C         3.49788875798527   -1.74929797204146    6.32401772048392
H         3.78722591463224   -2.60109215220452    5.72763782348738
C         3.88798263557755   -0.46224208936639    5.90278875211178
C         4.68472369648709   -0.25299590451826    4.73251711284338
C         5.24463509619114   -1.37688318567320    3.96647870758752
C         4.98853936067012   -1.50017176048941    2.60420396118546
H         4.33506572395081   -0.79035293271363    2.11857256015618
C         5.53360086317923   -2.54667550677845    1.88330330943483
H         5.31831787248201   -2.64069726878334    0.82975043064754
C         6.35246850006048   -3.47159853505642    2.50968153838412
H         6.77999524676109   -4.28568238090380    1.94506465324645
C         6.61922418707266   -3.35096679624357    3.86361771954280
H         7.25753857608171   -4.06915563540711    4.35586903111717
C         6.06531295950933   -2.31376836771603    4.59093102534910
H         6.27687698825163   -2.21745156697844    5.64681453527046
C         7.13020249703649    4.11274027881360    1.79734528960086
C         6.74761492427212    4.76550782424071    0.62817715401836
H         5.84803026133201    5.36435887486365    0.62227924713646
C         7.50142465928584    4.63001153114095   -0.52322710499619
H         7.19459775384442    5.13552823442741   -1.42626111206570
C         8.64725519328790    3.85187737817218   -0.51769334989998
H         9.23745465239802    3.75234169174156   -1.41552293704747
C         9.03424058303513    3.20230991372737    0.64287215791200
H         9.92891421158872    2.59809792262544    0.65154662663664
C         8.27697721709075    3.32488329563350    1.79323522321312
H         8.58403648663511    2.83230584352093    2.70409326310673
C         6.63715056217821    4.91082023544659    9.09007702806982
C         6.62206616426802    6.11892169971220    8.39673843440892
H         6.10398915179670    6.17862077613314    7.44858899556156
C         7.25142147333734    7.23157403112082    8.92036094113284
H         7.24006984035810    8.16319677870380    8.37447546826986
C         7.88635177275886    7.14938771348225   10.14918858499250
H         8.37589339539178    8.01755455191270   10.56345769234790
C         7.88579976257497    5.95487504626253   10.85086589698269
H         8.37419715016782    5.89370558402646   11.81208977541945
C         7.26199336824829    4.83524115602767   10.32889484956018
H         7.26002409071748    3.90916726848624   10.88542532040458
C         5.59462716340705    2.30276025985856    9.65192667518122
C         6.64214190030340    1.50805136289713   10.11006612216423
H         7.62138398785665    1.59020599749137    9.65795106112599
C         6.42291326737530    0.61248310183967   11.14096464204742
H         7.23561129621983   -0.00339166122827   11.49640400730875
C         5.16787563340106    0.50467094467319   11.72045381464510
H         5.00573612731201   -0.19784099630934   12.52365200001146
C         4.12400300279147    1.29670967618958   11.27089698326810
H         3.14586059075988    1.21670440588193   11.72147413869262
C         4.33780273670936    2.19133607448115   10.23894133123718
H         3.52862221860475    2.81362733200037    9.87219386956832
C         7.03502498029897    2.79629940174191    7.22962425236159
C         7.93963289879610    3.60974966945142    6.55299906005897
H         7.96923614719693    4.67078897162323    6.75822642498040
C         8.81273139081814    3.06158119288135    5.63148223472210
H         9.52062413620451    3.69902543758865    5.12198495569137
C         8.78360659265896    1.70166014025248    5.36773323364356
H         9.47504717126157    1.27044673315742    4.65848105926773
C         7.86998922219745    0.88998041202922    6.02137521488042
H         7.84289919449907   -0.16910913723009    5.81058258629329
C         6.99190834379127    1.43329260915349    6.93977868344259
H         6.27576474354475    0.79982963395312    7.44772190510901
C         1.07348295108280    4.27736920808395    9.16884323771489
C         0.87288569029490    4.67861284997636   10.48356631736149
H         1.37854644002271    5.55144300556461   10.87133066551498
C         0.01525264435849    3.95602438853773   11.29603275241364
H        -0.14303703990427    4.27053566896276   12.31679279655558
C        -0.63991478991247    2.83846291101730   10.80621429780009
H        -1.30574488541339    2.28046879959392   11.44681643094729
C        -0.44477469968920    2.43817658650490    9.49279907962826
H        -0.95816485763626    1.56968754589217    9.10781572580871
C         0.41085695641983    3.15306558237073    8.67778396960797
H         0.57403193477572    2.85627016968128    7.64846048131372
C         1.00442570025152    5.87425557846034    6.85393648763078
C        -0.14033888615522    6.51282655279948    7.32354105679918
H        -0.33743984885387    6.55029650252986    8.38621245744038
C        -1.01510015600378    7.09423576830315    6.42521398494395
H        -1.90361285443785    7.59073758367720    6.78521642494569
C        -0.75497039053202    7.04004092128954    5.06383028199294
H        -1.44269804569820    7.49533363339854    4.36748254249266
C         0.38056168405876    6.39973492090073    4.59516129125619
H         0.57790815475497    6.35528143316101    3.53431406417006
C         1.25914570181634    5.81279136104568    5.48831243652724
H         2.14774855232001    5.29959434114762    5.14193761364346
C         2.91158607952708    6.47610169330831    8.90940602424318
C         3.73220248369656    6.16753426309157    9.99376950903795
H         3.86991327471077    5.13230486316681   10.28121980094826
C         4.36369967336868    7.17351076864008   10.69816162313639
H         4.98578252904940    6.92805842244307   11.54567559984153
C         4.20625903371796    8.49424029592404   10.30792504287022
H         4.70269336646543    9.28052285132609   10.85565603825876
C         3.41643066615037    8.80393123480413    9.21343656060872
H         3.29949420782378    9.83225067857027    8.90526562342878
C         2.76920026137487    7.80120931529045    8.51227157401114
H         2.15021735295546    8.04764027102501    7.66057992974546

