100
CSD_code = JITNIK | q = 1 | S = 0 | Stoichiometry = C54H40CuN2OP2(1+) | MND = 4
Cu       10.37571600720371   16.76436357869519   14.16238141371020
P        10.86506152632869   18.83087675557353   13.43486298274406
P         8.19720217979236   15.99644167986766   13.75463363700220
O         8.22222694636748   18.78605347546678   13.44965666569112
N        10.41170454689065   16.07875304794750   16.09240812168853
N        11.42607372907017   15.06081207448407   13.89878447584669
C         9.87053247162440   16.69930752162867   17.15543775499317
C         9.16295861281298   17.90296755022185   16.96451031156949
H         9.07984439658994   18.29192243929724   15.95929581637114
C         8.59289138874113   18.53923325634957   18.03168655948760
H         8.04972355832042   19.46018555673273   17.88308855910038
C         8.70488845699353   18.00462074797134   19.32613363356588
H         8.25008207588774   18.52629201737772   20.15417436313874
C         9.37590774254454   16.83096408001184   19.53873391807558
H         9.45741944977396   16.41097320838825   20.53024655445249
C         9.96909924180794   16.14608970505362   18.46094794016928
C        10.65845182520623   14.92266027635213   18.59469811040982
H        10.77052768184963   14.48356841695216   19.57519970789606
C        11.16579208870600   14.30115430141818   17.48761788821497
H        11.69214784648190   13.36630395364421   17.58353840406767
C        11.01181172816585   14.90840957571115   16.22316116698261
C        11.45642304944005   14.28579804410023   14.97189031464165
C        11.83742360848379   12.92982883011702   14.88760495247676
H        11.84500194516198   12.31247044200590   15.77006240429188
C        12.16716945319200   12.39926990237144   13.67164802411583
H        12.44923946457872   11.36081961641821   13.57856341799981
C        12.13866065086353   13.21246910096987   12.51877454810424
C        12.45822599173644   12.74590394429469   11.22940547701517
H        12.73825355778050   11.71033908706213   11.10622912898616
C        12.41503335638162   13.59428406195741   10.15664066585438
H        12.66039361810519   13.23339327564731    9.16977706568547
C        12.06286028128991   14.94268208888623   10.32863437111762
H        12.04860231061316   15.59906889269574    9.47202869973203
C        11.74610341338408   15.42645734893357   11.56754213860920
H        11.48398908685854   16.46541731141233   11.72201721566419
C        11.76257937173856   14.57257252294952   12.68786852037693
C         9.90921195193586   19.22754018999718   11.94575802771637
C         8.52886098968889   19.09538068066705   12.15406152186188
C         7.63419738798606   19.23922502616256   11.11019551360413
H         6.57360514425307   19.12025638324053   11.27423567519103
C         8.12960088817608   19.51740395959002    9.84450604238289
H         7.43899707681071   19.63332159816499    9.02372197517542
C         9.49153709347013   19.63455072281618    9.62335730683105
H         9.85933603118698   19.84186797362692    8.63054578238428
C        10.38773458794403   19.47818341877437   10.66942676835658
H        11.45193232893351   19.54746148558249   10.49635316734838
C        12.58634846969259   19.16585227786123   12.94978037542087
C        12.98088501406239   20.41857370525752   12.48710075867160
H        12.25286992650814   21.21397891756436   12.40277666432145
C        14.30176540519876   20.63818679303342   12.14505378999174
H        14.60941442565188   21.60769004017078   11.78289883747657
C        15.23307267942377   19.61808548740415   12.27113571420992
H        16.26353831477052   19.79558935436902   12.00342851702012
C        14.84642313269696   18.37661382608377   12.74817857237364
H        15.57504648613947   17.58696632566150   12.85595319038594
C        13.52508746954467   18.15060180108308   13.09094435938325
H        13.20795139190323   17.18923804856534   13.47632441226015
C        10.57347939070621   20.25259754910824   14.53464411009323
C        11.14092001472619   20.15982899960306   15.80293324776449
H        11.70821448921709   19.27399899590796   16.06166031455007
C        10.97839394592409   21.18585643468469   16.71316673689361
H        11.41947876331037   21.11170075323386   17.69593683355402
C        10.24575359921570   22.30911155945682   16.36165415204773
H        10.11552745644743   23.11199081121917   17.07128407509288
C         9.68362110935149   22.40504464941278   15.09944517417291
H         9.11953107762808   23.28448319685336   14.82577423774302
C         9.84419004787402   21.38066900838701   14.18240323846578
H         9.40662658841417   21.46181564980525   13.19693628497317
C         6.74094267547457   17.05599461186075   14.07216192183920
C         6.94005578119185   18.41127486511288   13.79997197507476
C         5.91450374369317   19.32903733614787   13.95131858605127
H         6.09361545504942   20.37384617625473   13.74563276004448
C         4.67123962775440   18.88352709453045   14.36930594370816
H         3.86366381950525   19.58937424873573   14.48629577912749
C         4.46112570909667   17.53992550351985   14.63676668898352
H         3.48802705870914   17.20266399324232   14.95924275491940
C         5.48915749831365   16.62484352994911   14.49144344084424
H         5.32007111158835   15.57938779704636   14.70357668259203
C         7.70918193188063   15.36421975797858   12.11200747329172
C         8.38471062694440   15.85328441452388   10.99957181287702
H         9.19163736081569   16.55987647202249   11.13571926734953
C         8.02365296035617   15.44040034530933    9.72983428043514
H         8.55030490190278   15.82602145485280    8.86991130801168
C         6.98819992835151   14.53573327855212    9.56692354065736
H         6.70472860581278   14.21096291791465    8.57745256436604
C         6.31283605382873   14.04541153933636   10.67445711473435
H         5.50505953828231   13.34065944519844   10.54558501280861
C         6.66563286421787   14.45819556800103   11.94529501461712
H         6.13912021173080   14.07364184333318   12.80727414450471
C         7.95499010823852   14.57342429316165   14.84935246814891
C         8.43973529454916   13.32926725898591   14.45182702229991
H         8.79113985607228   13.19354978620118   13.43650979661881
C         8.46251675327847   12.27436138813763   15.34494043089129
H         8.82677781298490   11.30890421135393   15.02608989744890
C         8.02542453719505   12.45706880031719   16.64705282624965
H         8.04721223491089   11.63380769113401   17.34469968061691
C         7.56157228206069   13.69807754372519   17.05427306715888
H         7.22625153409251   13.84384364680396   18.07054740145267
C         7.53191816273152   14.75533234746755   16.16454936920255
H         7.18561861982050   15.72818752696995   16.48784966550363

