103
CSD_code = JITNEG | q = 0 | S = 0 | Stoichiometry = C52H36F6N6OsP2 | MND = 6
Os        7.54563390650523   15.94964539641754   14.18161343953266
P         6.39041655768910   14.09583325176196   14.91643202458739
P         9.23993019260516   14.43371977893710   13.75317097465506
N         6.43056282073103   15.89877474957488   12.43003827933604
N         6.08071371131044   17.22075387682768   14.56841997331813
N         5.76644433000123   17.81919437518013   15.68070069362983
N         8.58870387825773   16.44367888446713   15.90253644912568
N         8.65993027059984   17.46903594144344   13.58366954957301
N         8.83538063795131   17.94985200920457   12.38710758963487
C         6.65700965402924   15.06366876433133   11.39882404263158
H         7.45391960235719   14.34426393200338   11.54053454451945
C         5.92512886114068   15.06743559733444   10.25151422121778
H         6.12671155912695   14.35251489266365    9.46961683751562
C         4.90767297854384   16.03110992490710   10.08235513422206
C         4.14203277516015   16.11653807154201    8.90593979658219
H         4.32949254800889   15.40484710041313    8.11511688831341
C         3.19258626648946   17.09129595903634    8.76331580175881
H         2.60657649074529   17.15672962813871    7.85864597568034
C         2.99513372140853   18.02855397326365    9.78539754834443
H         2.27056036575774   18.81731879962428    9.64838626628874
C         3.71715421375086   17.95921313409173   10.94692792296364
H         3.57758381157799   18.70835981062528   11.70522456371472
C         4.67291514573261   16.94394853918034   11.14408526665144
C         5.43283536027384   16.79625787108749   12.34146591526933
C         5.19572186339274   17.50379415193412   13.57524985113836
C         4.22557833881027   18.35395168541367   14.12803169540741
H         3.34403717054578   18.77795994840666   13.69630085780945
C         4.63906610178874   18.51619661143359   15.44539128001455
C         3.98387010632663   19.29131454398107   16.52377022717380
C         8.49032861081129   15.77403143219526   17.06565075842059
H         7.84071108234919   14.90612916545923   17.05700856638919
C         9.17516629203634   16.11401740364959   18.19103567880149
H         9.07745746716874   15.52979395444415   19.09245112508514
C        10.01660135655988   17.24717491324445   18.17201859515433
C        10.75252543514984   17.64960047061765   19.30052611696233
H        10.67356267026256   17.06320084330090   20.20443821420796
C        11.54238264603066   18.76554311499674   19.25465037707992
H        12.10813171965476   19.07265951275098   20.12163505413357
C        11.60156689934495   19.52878040539007   18.08199433423617
H        12.20274471582158   20.42554583429711   18.06307560938673
C        10.89975370998796   19.15494376843873   16.96724108383102
H        10.93547451491427   19.77209944131463   16.08870998714677
C        10.10698573775008   17.99123979676655   16.96592466778284
C         9.38642344140703   17.52405145830356   15.82723700502195
C         9.46685031918531   18.07487718325092   14.49623321033064
C        10.22269446566655   19.02741156953299   13.79521417679487
H        10.98666360272945   19.69694193993547   14.12822182574571
C         9.78206882533800   18.90202565080398   12.48300715134111
C        10.25371525459299   19.63195767283302   11.28406643108138
C         7.54536618513914   12.68238899026078   14.98198898668576
H         7.20987226318088   11.75714936760447   15.43936844173277
C         8.76259971197851   12.81940424514047   14.46014261408806
H         9.48694931892654   12.01174778197899   14.46906311191546
C         5.39836815618856   13.89189122475230   16.43636244379655
C         5.16873513770952   15.00030602731414   17.24441620059473
H         5.60866564680080   15.95530825914782   16.98885214626681
C         4.36238775388790   14.88391010992030   18.36380248643157
H         4.17627844221727   15.75196071830957   18.97765608134922
C         3.79084688517701   13.66348050192079   18.68176682028143
H         3.16311370024313   13.57119965097464   19.55566704203029
C         4.01100761473244   12.55907244527412   17.87196170440217
H         3.55263117010484   11.61112427358161   18.11429739188177
C         4.80422750565478   12.67136616428164   16.74604921881696
H         4.94928954485851   11.81837793186052   16.09626817745117
C         5.15482407433161   13.49531689880327   13.71113478302225
C         3.95771396821822   14.20668253342154   13.65427641679210
H         3.76730722365564   14.97957830471419   14.38871010718949
C         3.03159121837910   13.93219430002921   12.66780451076883
H         2.11001065436550   14.49320485011656   12.62142337085319
C         3.29048114988586   12.94164665008440   11.73274291246618
H         2.56799703151538   12.72911937312248   10.95907965287210
C         4.47553644107172   12.22851916813774   11.78881910519370
H         4.67622172896509   11.45612864491986   11.06070636938499
C         5.41383941381345   12.51005006700284   12.76674693748880
H         6.34938935770155   11.96809600229117   12.79400774692867
C         9.99940067862330   14.02973218095652   12.14031418162330
C        10.67066650395064   12.84020026424010   11.88040206863038
H        10.72687623674334   12.06499199972214   12.63049584388746
C        11.28059939398713   12.64932636773173   10.65338503675197
H        11.79809826121917   11.72248679218185   10.45185493755449
C        11.23929623718233   13.64356597955163    9.68893476933978
H        11.72398845473071   13.48895970659370    8.73637527446405
C        10.58167118425991   14.83481790192420    9.94873890914239
H        10.55493413846374   15.61853920942384    9.20702610652157
C         9.95817707582656   15.02700110352540   11.16828538668722
H         9.43336031630242   15.95268893336816   11.36985298592353
C        10.76511728959575   14.80646079170173   14.68753424315505
C        10.98771937302233   14.31350559346118   15.96903519486162
H        10.32050353044425   13.57024692759699   16.38394217163374
C        12.05318042020951   14.78332537037928   16.71574719963820
H        12.22100533767681   14.39851182524407   17.71104635901062
C        12.89226291289005   15.75581264699417   16.19878253283218
H        13.71118597331483   16.13319831548181   16.79253017168043
C        12.67828052788613   16.24608496631424   14.92047814688855
H        13.33176570628705   17.00350897599295   14.51418991816960
C        11.61969513948295   15.77572927934430   14.16738862685407
H        11.44725561625096   16.15951200271103   13.17054638455781
F         3.69798491292162   18.53980830728596   17.60996204199701
F         2.81292790092191   19.82370899282075   16.12654591436984
F         4.72447810151427   20.31916541113479   16.98068145254373
F         9.30897295447512   20.39583306243608   10.70416587116197
F        11.28032950116299   20.45694858861193   11.56429185495924
F        10.70010301456392   18.80561728357087   10.31202805489389

