36
CSD_code = JITPUX | q = 0 | S = 0 | Stoichiometry = C12H14CoN3O6 | MND = 6
Co        1.46713733223024    3.25575087983582    1.95894266851118
O         2.91791259241213    4.44217972395568    2.02350941878432
O         5.14374294629546    4.47898234548123    1.95814370265506
O        -0.01490802596082    2.11940706577037    1.72906841582637
O        -1.42237422940156    1.25934592820498    0.24453101511629
O         1.42618685044545    3.08646220119096    3.80171883168805
O         0.26924408265634    3.66326986044898    5.59852396053076
N         2.75978887238805    1.90052020722827    1.88130527560473
N         1.26007841261384    3.59978728413684   -0.01477319750575
H         2.13607739202053    3.68617745606391   -0.52953691740092
N         0.27172056838239    4.72629236523072    2.23477839388802
H         0.89213293176511    5.51308928934295    2.44439168095877
C         4.08130866968673    3.90035152894162    2.01268022188915
C         4.00208329875609    2.38080016375199    2.02733005934677
C         5.10399971706487    1.55998588054769    2.19841134439135
H         6.07397241522136    2.01983323378766    2.30549629938716
C         4.91119387664559    0.18918743933575    2.24205132125832
H         5.74387089936405   -0.48203297316262    2.38688944354608
C         3.61973968207111   -0.30150220183696    2.11177966381815
H         3.42001679598467   -1.36024650604394    2.15459528586322
C         2.56991513981013    0.58444838730594    1.93664739699939
H         1.54995350329616    0.23726183777530    1.84869457987792
C        -0.43131434587029    1.88347215823965    0.54576853421871
C         0.48682963529362    2.48011286101206   -0.56990731808405
H        -0.11927563549999    2.77958298438465   -1.43042227878234
H         1.16368566027128    1.68135893847231   -0.88233321782260
C         0.55917208687731    4.89548136873180   -0.13004639965832
H         0.07195264663832    4.99094544335051   -1.10761780154937
H         1.30534645237835    5.68772233256960   -0.02492102736700
C        -0.45986386391118    5.01900709633877    1.00284637385028
H        -1.25709302459512    4.28062737698688    0.88241941027634
H        -0.90846606663896    6.01897044246921    1.01675345588226
C        -0.50427123637857    4.43565591464952    3.44067654698066
H        -0.90819505408171    5.33273742022920    3.91755384753031
H        -1.31798269041306    3.74818682601881    3.19912629733093
C         0.45728171218212    3.67268743925391    4.40802471215974

