23
CSD_code = JITPOR | q = 0 | S = 0 | Stoichiometry = C10H10ClNbO | MND = 12
Nb       10.78152205133282    2.57884731922212    3.52545195190467
Cl       10.29608886951896    4.63303888194355    4.44121780125490
O        10.79970878969007    1.61069476714693    4.90696726369389
C        13.19924275753484    2.11321725381427    3.08356864526343
C        13.14262706998001    3.51631922415085    3.19071934203669
C        12.40769216990216    4.01403369750280    2.08091807023613
C        11.99297557574943    2.92872908197418    1.30848737039330
C        12.44198714211411    1.73597426237947    1.94134850349114
C         8.23726132959222    3.20494701368863    2.11448191024402
C         8.48897715238151    2.23502610629971    3.13304632244499
C         9.08167303408980    1.09337866133998    2.46802227810984
C         9.15644338064135    1.40137429968304    1.09663879203857
C         8.64925209213412    2.68949803025653    0.89327145405333
H        13.78588649493110    1.44703895056124    3.70472981911968
H        13.68050341218277    4.11885705137116    3.91243118135779
H        12.27527283588293    5.05984244470077    1.83731419023563
H        11.51836679621689    2.98354807345453    0.33786504253689
H        12.44078504207789    0.74783500691547    1.49619311787016
H         7.76721854370634    4.16304711983480    2.27934089420714
H         7.90458634428568    2.15697502585825    4.04929086939582
H         9.12347074948742    0.09585146949855    2.89356280034200
H         9.52800163994548    0.74191085508825    0.32798016275138
H         8.59075672662247    3.19731540331465   -0.05474778298146

