22
CSD_code = JITREK | q = 0 | S = 0 | Stoichiometry = C9H4CrO5S3 | MND = 6
Cr       19.04813933065467    7.30710280905503    7.20859413743280
S        21.08608733665444    7.26327697613187    5.71827868893781
S        18.85713563814736    7.57311701065582    3.77297151377592
S        19.12001813706548    7.69117807921118    1.72346569282675
O        20.33588829274244    9.16878175030585    9.19488968924497
O        20.01828981906392    4.98726867919467    8.86585657637503
O        16.60191439081894    7.35954925504086    8.93740659111617
O        17.38303719113767    5.28708608030681    5.72610662703060
O        17.72163896590818    9.75062050003412    6.05839481927148
C        19.91754713585646    8.47097230049554    8.39027667524899
C        19.71822996367830    5.85796986361042    8.18673081830289
C        17.55187772868336    7.33765032450195    8.28837749024306
C        18.08360991213543    6.07769767527848    6.17582567539567
C        18.29177474528064    8.80783537398865    6.38096562004937
C        20.56208774824776    7.41249367602608    4.14206220815057
C        21.40060524983176    7.42217751467694    3.00950834984720
H        22.46334369606321    7.32738394217313    3.15790038932871
C        20.85360408183020    7.54845098970378    1.77540050690415
C        21.58263030192239    7.57282107291017    0.48253946127572
H        22.65340300941096    7.50595354042188    0.65338314263982
H        21.36325520488509    8.49134257542695   -0.05972501366919
H        21.26908211999244    6.73877001084051   -0.14400965974630

