50
CSD_code = JITSAG | q = 0 | S = 0 | Stoichiometry = C24H22ClNOZr | MND = 12
Zr        1.16466154279510    2.61939171015471    3.58030869957281
Cl        1.61453655339511    4.88505596223202    4.03864911970383
O        -0.65731722105354    2.95396953651954    3.30464566478189
N        -1.90137329689839    2.20753644445237    1.53578370797783
C         1.83207588299778    3.15646958972427    1.24990759214982
C         3.04151250235985    3.09660673758507    1.97912950250655
C         3.23020918791248    1.76876514540650    2.40813012508922
C         2.13735260322691    0.99765413873048    1.94551737782693
C         1.27529720013503    1.85433025498495    1.22275408053592
C         0.12691072829477    1.75347914784220    5.69912591343749
C         1.18390260303537    2.59988836070725    6.08773940674219
C         2.39915099777317    2.01134107335676    5.66214123785045
C         2.08746777815743    0.78952098911139    5.02775791814676
C         0.68008663970200    0.64285864891667    5.01717265836454
C        -2.05485863419463    1.01064232843857    2.25984431950210
C        -2.57428534784684    1.02827788843100    3.55543104658405
C        -2.70820321426958   -0.15028846063194    4.26566520332240
C        -2.33639113688758   -1.35877646413992    3.69831985327284
C        -1.83204433179626   -1.38272748976192    2.40789288001847
C        -1.68677291224520   -0.20980567160030    1.69142713017916
C        -2.28682028454451    2.24412150655641    0.18948622928801
C        -1.55935883818942    2.95177775638090   -0.76678178247696
C        -1.96219006583853    2.95084665065173   -2.08891847597886
C        -3.08648095616500    2.24491184567563   -2.48343971611837
C        -3.81067835240161    1.53637903949148   -1.53904246526026
C        -3.41932608785080    1.53534588611167   -0.21452810976678
C        -1.32462538770671    3.30867113746940    2.21061540565941
C        -1.45080381143836    4.58484427460668    1.82822423388473
H         1.46300109621517    4.02836793995438    0.72089533275881
H         3.74437050504992    3.91210089739564    2.10053036435820
H         4.12760027396039    1.38395049868376    2.87782347361682
H         2.04752565689426   -0.08130985298325    1.99934752086486
H         0.44480517731295    1.53176318020142    0.60947839747187
H        -0.91637172061326    1.88685861761134    5.95500118047805
H         1.09172011436575    3.49568305797833    6.69047999099628
H         3.39274893587007    2.37148148133859    5.90692040858930
H         2.79908883569056    0.02844322085456    4.73257246243277
H         0.13615656636162   -0.23790761595296    4.69622362416228
H        -3.99001447087832    0.98723934388803    0.52051304297819
H        -2.88824863524513    1.96812927080221    3.98665853071243
H        -3.11771993846915   -0.12860855336825    5.26482615278175
H        -2.44617559029425   -2.27700325023882    4.25514651854852
H        -1.54580778950035   -2.32132267319780    1.95638750431253
H        -1.30707433983424   -0.23667949607538    0.67993647513270
H        -0.67731996948494    3.49883978605720   -0.47182534222711
H        -1.38633575640886    3.50103659021502   -2.81836126520267
H        -3.39570561739554    2.24733369372603   -3.51743712154482
H        -4.69190980768346    0.98600664032008   -1.83367882197286
H        -0.95701998610626    5.34676854382165    2.40863960585686
H        -2.04914788026843    4.88144071170460    0.98896320813790

