31
CSD_code = JITTIP | q = 0 | S = 0 | Stoichiometry = C13H12FeO5 | MND = 7
Fe        0.99205310776322   -2.54858562764136   12.19560353161249
C        -0.58508110696533   -2.17012792160751   12.95864589049322
C         1.18238673506990   -4.24531750857116   12.62535519616852
C         0.44848457124750   -3.12369142513158   10.62028721326670
O        -1.61784081217977   -1.94753858366000   13.39090772213389
O         1.23727500894394   -5.35901156117695   12.89190478497450
O         0.03341672665352   -3.53393339680954    9.63511978113777
C         2.55526586975478   -2.52495228993358   15.11931562799563
H         1.70651810775846   -2.68984068052962   15.77812613677707
H         3.31290088607317   -1.97623677135592   15.68277850434068
H         2.96717832955690   -3.49177409310768   14.83940532143909
C         2.14012226384720   -1.73460204754961   13.90453715697443
H         1.70124487967250   -0.77683539136301   14.17631863617077
C         2.97422482649467   -1.77189583063967   12.75360697539666
H         3.89411941881588   -2.34724677367703   12.75750729310883
C         2.53094104663974   -1.15797248241963   11.57061582905466
H         3.11910320891757   -1.22015116712578   10.66102917392488
C         1.26240267821037   -0.49747307169722   11.59226710455271
H         1.06332490202547    0.19269618046963   12.40983538207165
C         0.68448309957229    0.00421372840808   10.28893174184670
H         1.22485682479435   -0.44114065152895    9.43639990576891
C        -1.44531486408941    0.06979234765860    9.29580322209626
H        -2.36825760528767   -0.48314434535682    9.17192402549962
C        -1.15358516690154    1.16545848482849    8.57639814122322
H        -1.81879062330548    1.51008235577934    7.80316326339570
C         0.72093994181713    1.52268464859936   10.15929662258170
H         0.18245379182693    1.98459730860695   10.99279977723346
H         1.75055150717060    1.88009171066721   10.17249212388723
C         0.02902339535555    1.95877438802733    8.86908286418552
O        -0.66358849196132   -0.49076869218335   10.21547130479759
O         0.40828754270894    2.90584916002074    8.21756974589002

