109
CSD_code = JITZES | q = 0 | S = 0 | Stoichiometry = C44H56N4O4Pd | MND = 4
Pd       -1.71256353366654   11.74030755443516   10.13523010848899
C         0.80307038988267   13.73358322125423    9.98353047334027
H         0.21140003149713   14.61419651554170    9.70134090847009
H         1.76397077372149   13.77503449640094    9.45280018690069
N         0.12382316234125   12.51959288468475    9.56032639476853
C         0.80604313955285   11.71672866269166    8.73388403340088
O         1.93359577688092   11.90749439684354    8.28391573443785
C         0.02155045285495   10.48070731341432    8.36610706313846
N        -1.16942129103097   10.38770380222574    8.94510498191112
C        -1.97724237999209    9.35526501530546    8.73949625924942
C        -1.60178484495447    8.32691144845709    7.88352874360419
H        -2.27982234761925    7.50193057491506    7.73191448240680
C        -0.36628359154940    8.40326230147677    7.25658570371123
H        -0.04999065453532    7.61920975489186    6.58469454800808
C         0.46338319388064    9.48884213000885    7.49938533270668
H         1.43476543873307    9.59120781594195    7.04207498131593
C        -3.28198438599212    9.40467311406452    9.49757244747303
O        -4.12035512569790    8.51568295040272    9.36269023392502
N        -3.37828859429127   10.48549050993286   10.28248602670312
C        -4.61562148740755   10.60634683111750   11.03908549238019
H        -5.36983079403524    9.97890820662189   10.54184690289117
H        -4.96023324566226   11.64777081978130   11.02593622509080
C        -4.48161431493119   10.15544173297311   12.47006519445489
C        -4.84184139325835   10.98390377885058   13.51971939808894
H        -5.21873778931405   11.97684374423338   13.31475906971480
C        -4.74487994932862   10.56173220699442   14.83644588943760
H        -5.04981534760303   11.23269045486986   15.62495211556118
C        -4.27714209703338    9.28433574025481   15.12129964903188
C        -3.90138916455042    8.44937361289872   14.06626663338971
H        -3.54496710427162    7.45866971761953   14.30120279236996
C        -4.00663466813679    8.87878022910520   12.76232080175325
H        -3.73602839517725    8.21934732929083   11.95155385781167
O        -4.15101050002742    8.75588848432232   16.36777121174859
C        -4.44558762009537    9.56289721466161   17.48638988815824
H        -3.82736057242657   10.47125957358872   17.47147082831213
H        -5.50256846456081    9.86633994691486   17.47188333028248
C        -4.16371067177265    8.75196087027616   18.74997794365925
H        -4.88483323290661    7.93474722152498   18.80285070557428
H        -4.31833023462212    9.40188183228762   19.61364136138197
C        -2.75369217915399    8.16090969632629   18.77608474649778
H        -2.63568106572482    7.51167531984802   17.90760608301176
H        -2.65450209433737    7.54480304784298   19.67264354298667
C        -1.64786744735906    9.21317847746544   18.76923999167131
H        -1.80275387606493    9.90561929536117   19.59924276973675
H        -1.69199172849894    9.78307554834496   17.83935329384351
C        -0.26812154345614    8.56658169425555   18.87650270994448
H        -0.16851312967593    8.07398129843404   19.84636845489642
H        -0.18939732629185    7.79528148417342   18.10615624431481
C         0.87759232723058    9.56094180633041   18.69048438279808
H         0.70228986638245   10.13858479414870   17.78067592110856
H         1.80768204954034    9.00472193450982   18.54951701464137
C         1.06019362790006   10.51165046381660   19.87195124877845
H         1.31655978775696    9.92374653393595   20.75619535125784
H         0.12579408903926   11.03470272527881   20.08195869931032
C         2.16034263433315   11.54177327064716   19.60833963956532
H         2.51845821666096   11.94606988900716   20.55790602403330
H         3.00429952040887   11.04407659307780   19.12537184298313
C         1.68717301882865   12.69993531028395   18.72954500052913
H         1.00409753630154   13.33070523288721   19.30463925692830
H         1.14166940590664   12.30843341801467   17.87071539264371
C         2.86595523796656   13.53240009291518   18.23233147052726
H         3.53346129172343   13.74632076452225   19.07060826239376
H         3.42506342319789   12.95162397567664   17.49794590268869
C         2.46072845633591   14.86375977236924   17.60106972722879
H         1.97913569857451   15.50022808329803   18.34657938157903
H         3.36463476761552   15.36955025435304   17.25618420432138
C         1.50209437195247   14.72916319882381   16.41692368519629
H         0.50486966715051   14.41757242981573   16.75956386438854
H         1.41019066420211   15.71025016240160   15.93430950039871
O         2.01066845812330   13.77357536507766   15.51097539066111
C         1.60893939444002   13.79535878412982   14.21126188720625
C         2.23152423569163   12.86551403698153   13.37344656010799
H         2.95086173864847   12.18900581816040   13.80777268394142
C         1.95030112713265   12.83965410550218   12.02586390466302
H         2.44926088760006   12.13027380189147   11.38160472286738
C         1.04809393124245   13.74369809298147   11.46748263241050
C         0.40197766298350   14.63367454666954   12.30914443951452
H        -0.31049473865049   15.33868737791302   11.90267002038438
C         0.66253722966184   14.65766483867774   13.67064556349369
H         0.12775820698337   15.36248905757371   14.28867492301020
N        -2.29379086997344   13.08509571099246   11.47117545651071
C        -2.14049886708897   12.76178355484178   12.76215980285679
C        -2.66850539099610   13.57128472942101   13.75880307652418
H        -2.54088366677177   13.31060821842759   14.79524720429675
C        -3.36390390815645   14.71579948029951   13.40643592018833
H        -3.79349884688556   15.35085446248103   14.16656579064303
C        -3.48683586143918   15.04523032800995   12.06700396259535
H        -4.00342420520349   15.94167855405315   11.76185522641610
C        -2.92408512691706   14.20777916767967   11.11357155861066
C        -1.36423597078845   11.50205406066696   13.02284547492282
H        -0.40516040362489   11.58113234192647   12.47711820486424
H        -1.93093407197991   10.65846278543725   12.58958681857391
C        -1.07181167296616   11.18005161870046   14.48545608121318
H        -0.48555032960437   11.98732736445819   14.93033357057024
H        -2.01116870576505   11.08109363617572   15.03351339759692
C        -0.29675056672008    9.87248132536123   14.58782795485368
H        -0.08752708649855    9.62720779709199   15.62583939169615
H         0.64913634434473    9.94927953736103   14.05626902211365
H        -0.87505612456648    9.05839997327556   14.15638696999521
C        -2.93936511331486   14.53274383509937    9.64621142680423
H        -3.18219723549063   15.58712637257308    9.50607225864240
H        -1.92267417166139   14.35402510008035    9.27071572779093
C        -3.90223324143408   13.64823269392235    8.82445618676354
H        -4.83043654938595   14.19001174275326    8.63253739681435
H        -4.14732854747605   12.74456000843551    9.39140422381211
C        -3.26535178887300   13.21267165514874    7.50629624942798
H        -3.95863790983937   12.59750311156602    6.93674306724286
H        -2.35982271300463   12.62022562991593    7.71220554126190
H        -2.99138936308326   14.07493879905908    6.90099876284041

