71
CSD_code = JIVFAW | q = 1 | S = 0 | Stoichiometry = C27H41NPRu(1+) | MND = 9
Ru        8.33302693617922    1.84555716681454    2.17084875467550
H         8.19820290948067    1.41700961343885    0.72713859826878
P         9.77630071077415    3.41957509892807    1.23172100362948
N         7.19266283072297    3.61081424179085    2.63014103280072
C         6.90005410412295    6.13139376296217    2.09992222702528
H         5.87935588066513    6.03538404434794    1.72067629484800
H         6.84134346019438    6.54537140734063    3.10928583825888
C         7.64464853934180    4.82979991678384    2.04378576179417
C         8.75157988475541    4.91469222617440    1.27204851824106
C         8.83445412091708    6.26136940075711    0.71355920322876
C         9.72824840352083    6.85330946577802   -0.16584293571163
H        10.55206158833584    6.30039743784187   -0.58751149605734
C         9.53536073715277    8.17962663010291   -0.51602740909129
H        10.22388077746952    8.65195268655238   -1.19942729285846
C         8.47117077884328    8.90759348052960   -0.00557875261686
H         8.34389298115104    9.93976718676327   -0.29172484619854
C         7.74261877426355    6.99676847283446    1.20788103508395
C         7.56097411534260    8.31803503835765    0.86040346830807
H         6.72501250642691    8.88118953247649    1.24631440694390
C         8.57616324463947    1.08172756442480    4.35063417921139
C         9.77120230523261    0.79249742402361    3.64450671527521
C         9.43423464144738   -0.02722348821542    2.50904373943504
C         8.01544071898389   -0.30182045631953    2.57863668902220
C         7.48732197373918    0.40992248064251    3.69457034183658
C         8.54715887819718    1.68311726694555    5.72212403422717
H         8.92206614296968    0.94236655737487    6.43134170971038
H         7.54363576010602    1.96027032724676    6.03550460013063
H         9.18908250120251    2.55981767827762    5.79933759580520
C        11.15332855563999    0.97521271208107    4.18789329183463
H        11.26565812926665    1.90932772789821    4.73230996907729
H        11.90292040682178    0.92779997805026    3.40198982038976
H        11.35398262943077    0.15892631700162    4.88570830853441
C        10.42043272849675   -0.82549619357330    1.71073197014063
H        11.33415481642007   -0.26493795814879    1.52792774054844
H        10.00107705576853   -1.12502099192846    0.75337717424698
H        10.67887148768495   -1.72920785341787    2.26580372495488
C         7.28970542171884   -1.35893656024932    1.80852223122486
H         7.35468075468561   -2.30188434645289    2.35503956642658
H         7.72818699086892   -1.50432085566397    0.82473513569002
H         6.23867279136010   -1.10956603613449    1.68351131899753
C         6.12232696479951    0.15799454778467    4.26235765055835
H         5.34425850011958    0.24309052540593    3.50408990991918
H         5.88404683236574    0.82645006351287    5.08745931270653
H         6.08870200322485   -0.86250687126474    4.64823300471903
C        11.27110453975171    3.92743979202796    2.23373058413050
H        11.80995291118146    2.99207587378057    2.42523599676559
C        10.75813000074356    4.49312266027132    3.55677319154155
H        11.55843491328204    4.53719987107250    4.29251925438188
H         9.95063922737540    3.87394496872270    3.95425406177581
H        10.37437708975603    5.50167100985043    3.41142344908574
C        12.22208545118064    4.91156439599749    1.56480347248996
H        11.71367730927484    5.84070194178823    1.32122431031836
H        12.66994483318190    4.49679282741057    0.66565360642543
H        13.02925933496196    5.14421889835217    2.25766730075131
C        10.34536074317597    3.29270615390404   -0.52420019772003
H        11.00133261546200    4.14498855791382   -0.72484570907091
C         9.14121004348303    3.35442270505413   -1.45602595442627
H         9.46153031557773    3.21098454205063   -2.48517553875406
H         8.63852321168050    4.31704773616728   -1.38377005052021
H         8.43004015865320    2.56805217910345   -1.20480047147419
C        11.12205938381101    1.99233566117026   -0.69232136279046
H        10.47169369471074    1.14990819878764   -0.46291361508888
H        11.98554687481038    1.96281767287612   -0.02913271978404
H        11.47379591140921    1.89013063896558   -1.71623891346418
C         6.53796181424075    2.74920571585428    1.71394848424933
H         6.33405672896363    3.20754460456410    0.74266418261578
H         5.64202934010734    2.27378294024416    2.12380948100530
C         6.53074858686631    3.82188379611199    3.91523689452379
H         7.21901061346685    4.29291164440354    4.61878349472135
H         6.19160473171354    2.87256199591326    4.32346442479163
H         5.65612734634388    4.46797664777913    3.79302919835182

