86
CSD_code = JIVFOK | q = 1 | S = 0 | Stoichiometry = C33H49NPRuSi(1+) | MND = 9
Ru        1.19841996045367    8.82484080275321    4.05692304039158
H         2.38325746582145    7.85926021494309    4.10646759804309
H         0.72174397258071   10.22687974833936    3.63681779219904
P         2.28973729520189    9.14062445066000    1.97982496597141
Si        2.73475295847091   10.06732284116796    5.29998666913880
H         2.29109411053954   11.07332080592264    6.31870984341115
N         3.65666220328885   11.50247707219983    4.21476193010028
C         5.63713673074565   11.54452027196731    2.64036636780089
H         5.69216000303555   12.63522271635138    2.65455819755437
H         6.40377422428746   11.16971313897999    3.32223395739459
C         4.26871860005480   11.02637136522989    3.00036914392067
C         3.75072370239110   10.26871714079831    1.99569536051839
C         4.69497764545278   10.32586951149752    0.85873686425575
C         4.61004665670701    9.90095703342619   -0.46219482301091
H         3.72268805734424    9.44215392946245   -0.86204017496027
C         5.67930097577604   10.11562550605514   -1.31545227463423
H         5.60905889637591    9.78185080091646   -2.33927572507910
C         6.82991472071605   10.75722982683940   -0.88422301365554
H         7.65327307417591   10.90323775726652   -1.56522016982642
C         6.90537228532719   11.24410501017299    0.41044034318636
H         7.77495727778363   11.78687252600784    0.74820649197483
C         5.83394474237817   11.03959182063546    1.25423483708094
C         0.31835683575080    6.84551372768423    4.74984006446275
C        -0.63027709134716    7.35493388876016    3.81209377930122
C        -1.06605356563823    8.62374576027515    4.28586174996503
C        -0.41583351389154    8.88733036345598    5.54961013398319
C         0.43290486461430    7.78227312298095    5.83916226165047
C         0.78827082221415    5.42526052770469    4.82381413673011
H         0.08574699324324    4.86205612432463    5.44218770186499
H         1.77212455540097    5.35058531428633    5.28278102398714
H         0.82297909888550    4.95176035406587    3.84514781023872
C        -1.30618506817535    6.54427360077869    2.74866362237021
H        -0.61713279853178    5.87452228146183    2.23920401727309
H        -1.79137104853009    7.17442362228147    2.00751661085591
H        -2.07705162028484    5.93087497158609    3.22124282857004
C        -2.26857052474274    9.37281502432538    3.79995831938109
H        -3.13455636057020    9.04864200737807    4.38133402303055
H        -2.47756828912913    9.17554603269913    2.75110003448163
H        -2.15820171795263   10.44681415148300    3.93711888300126
C        -0.84721577710504    9.95023529075433    6.51361637551753
H        -1.75816389671807    9.62519521059359    7.02046799586354
H        -1.06172561937454   10.88747154754363    6.00425667925811
H        -0.08575665163853   10.13515432440378    7.26751380997780
C         1.07841892049764    7.47285078906311    7.15484737616561
H         1.20257567089265    8.37134625043191    7.75385566392156
H         2.05740761121644    7.01445897604376    7.02510826284704
H         0.44791678286188    6.77493385597324    7.70959376117603
C         3.11095352539296    7.61092726912036    1.26848278900450
H         3.40971226050794    7.83233997173074    0.24242064043187
C         4.35485998524694    7.22034268078926    2.05689216633729
H         4.11321099880659    7.05789966048831    3.10635721622566
H         5.12323918722237    7.98700619894229    1.98427830087214
H         4.76435696600351    6.29515024812481    1.65606017238473
C         2.10885100785951    6.46529288085474    1.24704181438692
H         2.58893375026181    5.55312584984209    0.89723446976639
H         1.27345445125444    6.68124848418554    0.58409649261253
H         1.73525408531215    6.29064998898462    2.25406519296180
C         1.30233783467111    9.79093093114357    0.51872656573188
H         1.73113160003645    9.35068218759049   -0.38712340892990
C         1.36373386097279   11.31121861506018    0.42012907492756
H         0.81565743695268   11.64093315293016   -0.46054181015993
H         2.38689259887340   11.66984021291197    0.33620268921130
H         0.89738110265065   11.76676880430033    1.29178345962331
C        -0.14670191908891    9.33862347284029    0.63665862255993
H        -0.57768378148939    9.73253994967507    1.55512053074180
H        -0.22223917548317    8.25448806566815    0.64631446466566
H        -0.72735079185247    9.71373758478932   -0.20418435352211
C         2.65514752883464   12.50772019419681    3.84132734447949
H         3.11199811479111   13.31257712909005    3.26274295299839
H         2.20579370320641   12.92558201277818    4.73846724584296
H         1.87933718342035   12.03380903870900    3.24692516927825
C         4.61880744438781   12.14325944317934    5.11533597866436
H         5.41311272988699   11.45023526832802    5.37586330389913
H         4.10520501871211   12.42394022145779    6.03135577591469
H         5.04508417024337   13.04613543495471    4.67857473461057
C         4.26687093755405    9.30686602517033    6.14470181243194
C         4.32146953574411    9.19069400751727    7.53156102643673
H         3.51188500897945    9.58581604897904    8.12701684148811
C         5.39485715626393    8.58327664144619    8.15828915262363
H         5.41593508408468    8.50457200408616    9.23475526190964
C         6.44132900513540    8.07712937075144    7.40588554453588
H         7.28000328401760    7.60305445873012    7.89222716387752
C         6.40540176156719    8.18040562951125    6.02463586692829
H         7.21708225537893    7.78591807156640    5.43120499017424
C         5.32680154804255    8.78350189468818    5.40457408700256
H         5.30113937479798    8.85307948293555    4.32601650943497

