73
CSD_code = JIVFEZ | q = 0 | S = 0 | Stoichiometry = C40H30Cl2Ti | MND = 12
Ti        8.02762551895487   11.36995061211495    2.29527199739992
Cl        9.93098390961086   11.87548150204494    3.31864522685857
Cl        7.12553056007355   10.81941962923746    4.24946314560863
C         8.30277225463159   10.15983250172828    0.31510817825373
C         8.17400250283174   10.49536717340281   -1.11352253910140
C         9.21938780823602   10.17850038206966   -1.98729408147709
C         9.11972117504185   10.42394277069608   -3.34350564956309
C         7.96785873283155   10.97677230659016   -3.87554972398589
C         6.90884029497849   11.26390010830494   -3.03161590399502
C         7.00730916809096   11.02534818906292   -1.67394064420614
C         7.28753254702327    9.53001856947402    1.12561263542712
C         5.86929898070629    9.32314260753902    0.77731842968690
C         5.51463730615312    8.72199478011058   -0.43019992717065
C         4.18385814148745    8.50192718643863   -0.73624790607787
C         3.19182240234885    8.86754532950306    0.15827766969734
C         3.53671924461299    9.44457201130847    1.37005914990333
C         4.86481571269294    9.67054500208299    1.68184484842448
C         7.94176464570277    8.84203735374236    2.19613378837385
C         7.33048811851369    7.91686369014219    3.15730611651397
C         6.32185290272183    7.03581216788265    2.76689416478780
C         5.77894246411921    6.14250493289963    3.67183788674312
C         6.23345209766374    6.10726013965091    4.97862364807003
C         7.24844828715333    6.96395637873710    5.37305138072711
C         7.79703237070453    7.85640587010051    4.47375973106934
C         9.33971100477661    9.08332360396650    2.09716541500599
C        10.37496996285206    8.35921669626468    2.84951130596528
C        10.25995951460491    6.97060724893301    2.95975069951690
C        11.22344969657943    6.23376563502078    3.62036228919553
C        12.32264268110628    6.86446669966377    4.17952437462934
C        12.45576327771511    8.23714444678825    4.05916038943867
C        11.49715961617572    8.98055314497515    3.39508881848044
C         9.55648905126028    9.93458545991109    0.97860138261238
C        10.87875465388980   10.38074036922092    0.51883109012249
C        11.93659220505537    9.47750639518265    0.40799150737487
C        13.18294577465482    9.90708432796351   -0.00771199964246
C        13.39472231236109   11.23873869196229   -0.32234194035872
C        12.34666116130438   12.14009863224164   -0.23069540409730
C        11.09857400249226   11.71661035876345    0.18395881598610
C         7.57175708058709   13.03257102732073    0.71327651782090
C         6.32579289508802   12.59827325190655    1.24044800992625
C         6.25772848976706   13.00850395104661    2.58266689899951
C         7.46238226032238   13.66257770239843    2.90360742000584
C         8.26203412592403   13.69862552856321    1.74325566581994
H        10.11543900110119    9.71589800813780   -1.60635164069619
H         9.94808119641457   10.17113520756586   -3.98874161780829
H         7.89098980575429   11.16947726409158   -4.93485472505048
H         5.99460433237152   11.67792796890319   -3.43117368239216
H         6.15808391478694   11.25045403491537   -1.04995666685149
H         6.28727532525736    8.41774687453625   -1.12144028906186
H         3.92199796949166    8.03672074136854   -1.67511778831683
H         2.15387037974839    8.69513949576345   -0.08408944973593
H         2.76698613201646    9.71896001565081    2.07606557047159
H         5.13655315279636   10.10903296887746    2.63569901199490
H         5.97537131838574    7.03259274691717    1.74462346708226
H         4.99852155451113    5.46801877762834    3.35057689348610
H         5.80424396230391    5.41165437445912    5.68449219251280
H         7.61449770725981    6.93694891601469    6.38869161352999
H         8.58569013958060    8.52332112852530    4.79332059461520
H         9.41555917196865    6.46863094017397    2.51012424725117
H        11.11668355032830    5.16137355152372    3.69523644206384
H        13.07312818100594    6.28800240534042    4.69996061741313
H        13.31403560738507    8.73637618025091    4.48428178768882
H        11.61425421263321   10.04909879535917    3.31111557405083
H        11.77389276658025    8.43424186445172    0.63441469795150
H        13.99252941819332    9.19644558845638   -0.08571641538526
H        14.37119758304741   11.57266105268929   -0.63982757873918
H        12.50530532148695   13.17916548029714   -0.47952174302560
H        10.28241497919166   12.42441248180955    0.26378268074478
H         7.85037676301608   13.03539626737667   -0.33200864140228
H         5.48869213466379   12.20499062902849    0.68083578373890
H         5.40282545466390   12.90314109315145    3.23654562047928
H         7.69995574349083   14.12636522129251    3.85230955901995
H         9.20305630716356   14.22477555849082    1.64944100559682

