63
CSD_code = JIVGAX | q = 1 | S = 0 | Stoichiometry = C30H25N6RuS(1+) | MND = 6
Ru       15.30340617478692    0.45644063131654   28.76470374190277
N        16.79942264620358    1.36889234852618   29.75510895621656
N        15.66072590826703   -0.90286433326315   30.17970302677217
N        13.89657862638806    1.45729032238075   29.75733888369114
N        14.88841067229214    1.89704066716539   27.42602819883018
N        16.68047401719272   -0.61907186736404   27.64960279827847
S        13.34203921286352   -0.70360487673759   27.82099733511521
C        17.24677585273148    2.60819688772644   29.54097920955878
H        16.75487412517592    3.16686268832387   28.75286784922880
C        18.28100075829271    3.17090649268818   30.26091254963863
H        18.60287315838396    4.17719846745103   30.04866106985246
C        18.89467967077783    2.41527262974121   31.25500475391408
H        19.71107828303020    2.82000606216260   31.83088619671374
C        18.42844709784460    1.13748907849443   31.49571829021395
H        18.87642417459961    0.53658116280833   32.26938800576382
C        17.37072073126704    0.63333608815600   30.73824933929634
C        16.74788619063971   -0.66875778678610   30.95444815368084
C        17.17756053073222   -1.59845863250551   31.90114226491235
H        18.05908583678159   -1.40681367356903   32.49004189097129
C        16.46666679682633   -2.77014272139617   32.07954323830944
H        16.78747043378203   -3.50134167602468   32.80393844728807
C        15.32469654099548   -2.97556626634531   31.31471433827388
H        14.72458810588911   -3.86208771507953   31.43660234806693
C        14.96619101479957   -2.02329509673708   30.38004754188599
H        14.08171363678479   -2.14972997526129   29.76645288255612
C        13.52020023936642    1.25147343501351   31.01791616968703
H        14.15237174999161    0.60539452654854   31.61554408487657
C        12.38279519584570    1.81151209552046   31.56595471400287
H        12.12021951177800    1.60654318768618   32.59075569034357
C        11.58638928050663    2.62456622731932   30.76880869532785
H        10.68189878171531    3.06360938011368   31.15814977504941
C        11.97950317165097    2.86237501551114   29.46644565366012
H        11.38451388069762    3.49441543270104   28.82873863261728
C        13.14429189618730    2.26877185109213   28.97986250539975
C        13.70136617103191    2.50686741416191   27.65075469980533
C        13.11576980108967    3.33708708877530   26.69425898557306
H        12.15118487039367    3.77981330193082   26.87744403056514
C        13.77486358710503    3.57594598380795   25.50426316580655
H        13.33206117476877    4.20302903216291   24.74710100815635
C        15.02428568288647    3.00084204150384   25.31293115873685
H        15.58694681496113    3.17826368723914   24.41124233227388
C        15.53038981729588    2.16556218144697   26.29137286868897
H        16.48761312576526    1.68392943277079   26.15169213419504
C        17.84969026714297   -0.11389499553556   27.25070544840054
H        18.08991031579757    0.89213165745206   27.57707264343604
C        18.74881349216082   -0.80943623577836   26.46155368103389
H        19.67454328833379   -0.34274461289475   26.16419380017500
C        18.43634237931047   -2.09891522354527   26.06242975365394
H        19.10860211410254   -2.66541875884983   25.43752550734276
C        17.23544802051218   -2.63826895822007   26.49524330193103
H        16.94410183983850   -3.63963504943154   26.22221582945070
C        16.39559666218573   -1.87024021925252   27.28097758773544
H        15.44866439488801   -2.27379024721912   27.61930937103818
C        13.57578940810793   -0.69412788178081   26.10701105500546
N        14.76814364044596   -0.31104409483257   25.65562886085660
C        14.97518118702954   -0.33187935735199   24.34635359812516
H        15.96413238812856   -0.01786198797947   24.03293606531335
C        14.02420003708523   -0.72518732150054   23.42645558106271
H        14.24624692474544   -0.72888235384635   22.37182661837667
C        12.77492425017054   -1.11693283441240   23.90240483364330
H        12.00054025201458   -1.42807453431251   23.21720989375714
C        12.54145338392999   -1.10484267361795   25.25886949534666
H        11.59562080370125   -1.40163453828043   25.68275945862016

