73
CSD_code = JIVJUU | q = 1 | S = 0 | Stoichiometry = C23H43ClN2OP2Rh(1+) | MND = 5
Rh       10.23275328601176    5.58183102380711    3.58054764156509
Cl        9.86842605263323    7.15975721186224    5.15469516517832
P        12.43677077608996    5.19296151996808    4.18938694741972
P         7.97448976196456    5.18481282798391    3.19314585295841
O        10.86215987253648    6.41885248873575    1.13362898819176
N        10.54053768205913    3.97140464806986    2.27589149904193
N        10.54241852358952    6.81643606326106    2.19465322856807
C         8.17758475251632    4.11634834179616    1.68376433492407
H         7.34447025440592    3.42452918043443    1.54816406744159
H         8.18160841472782    4.80476682940701    0.82971380350279
C         9.49373614714893    3.40017917453052    1.66197273247578
C         9.64198945516549    2.21736619646360    0.94931212733142
H         8.78512502036494    1.76613883434726    0.47559673628914
C        10.89479628434570    1.63885952067366    0.84376160336044
H        11.02927715689719    0.71583325425380    0.30307704757315
C        11.97685506307196    2.28415432150858    1.41742971390807
H        12.97330046659837    1.88643937786840    1.31360444128686
C        11.77335596315186    3.46117260640056    2.12425973671800
C        12.93130873309216    4.23638054362139    2.67500628573758
H        13.20766182705846    4.98194197958768    1.91911018882225
H        13.79770593060441    3.59626722866714    2.84848813938316
C         7.18784886377035    4.03235291897806    4.47285697323397
C         5.77166468157223    3.58299132738945    4.13020961942795
H         5.46135071407097    2.82838427007733    4.85169650516117
H         5.71228704603443    3.13430874795742    3.14031662735320
H         5.06274036418841    4.40334378856507    4.19501257915964
C         8.10661381178601    2.80927355843187    4.54166115667937
H         7.78065638708267    2.14806352687318    5.34240071514726
H         9.12801702671863    3.12379765547508    4.76769413426443
H         8.10530229124557    2.23644560428150    3.61592699718917
C         7.21385857883416    4.72600070231141    5.83704066925468
H         6.45061908380170    5.49242811749910    5.91810150305195
H         8.18214229581872    5.19251692168069    6.02040376306562
H         7.03374422170904    3.99528261075866    6.62334795233745
C         6.80197645497782    6.54812233622970    2.61988923025644
C         5.67930554155893    6.03015338659113    1.72078969384462
H         5.09098877907709    5.25121840653751    2.19371826928325
H         6.05940749227072    5.65582682597214    0.77312446717383
H         5.00933686741617    6.85892483646807    1.49836883243097
C         7.64816295917777    7.55308279750356    1.83582330308770
H         7.00934210707522    8.35157461590170    1.46419060957644
H         8.13428843010158    7.09724236472630    0.97365204726501
H         8.40554711442554    8.00174536480140    2.47795596735853
C         6.23740085995332    7.25551996016170    3.85118955349453
H         7.03354245225827    7.48396581866603    4.55884477854974
H         5.47499392614429    6.65863242118707    4.34426969638826
H         5.77672876361036    8.19470769954348    3.55135473405400
C        12.63117142815099    3.94279772058021    5.60049292084301
C        12.08564906121915    2.59704219323639    5.11193923733351
H        12.77020911604767    2.10893765210551    4.42197665307654
H        11.11915281667120    2.70780149601572    4.62184034454470
H        11.94842160773478    1.93440968024661    5.96462262052026
C        11.75743707564908    4.44941175322431    6.74978644920340
H        11.76663861998495    3.73603366087839    7.57157801707381
H        10.72479855632218    4.57824918157985    6.41849692135068
H        12.10719608750714    5.40623821803073    7.12754764771348
C        14.06644571446560    3.72917879944850    6.07028692182987
H        14.47784969993460    4.61367299381529    6.54652174052994
H        14.71481413751209    3.42401902125178    5.25120425362504
H        14.07358258346346    2.92933776126900    6.80972775557622
C        13.67650337417289    6.61345349459956    4.28261556080288
C        13.25297123929686    7.63477682575397    3.22415261932242
H        13.93208655637101    8.48436937999113    3.25247053095120
H        12.24856413834861    8.00770114827938    3.42521807568800
H        13.28876427393210    7.22374608224604    2.21596856375137
C        13.55381755227979    7.27607851236332    5.65476217316631
H        14.10360102050974    8.21517055495323    5.65423224903607
H        13.96311820944624    6.65672579941274    6.44802601199693
H        12.51076384514655    7.49963278576236    5.87589012490761
C        15.11328117347172    6.17665224913750    3.99898334382668
H        15.21466800630395    5.74654246929607    3.00503485931039
H        15.48664042093931    5.46794423687076    4.72946444590037
H        15.75315514639584    7.05643657202037    4.04120929822353

