77
CSD_code = JIVREL | q = 0 | S = 0 | Stoichiometry = C44H28N4Zn | MND = 4
Zn        0.00001706657472    0.00001453720403   -0.00000640624628
N        -0.89074992556502    1.53507537458906    0.97819687478978
N        -1.09605488750663    0.41810333953477   -1.65307590919222
C        -0.68654596906226    1.89835573396212    2.27348930299157
C        -1.57718920937618    2.96872808967995    2.62579196447747
C        -2.30966794854704    3.24722002569942    1.52248564422086
C        -1.86799389948274    2.34813399219627    0.49302313137746
C        -2.40526199943655    2.30722091113872   -0.79266677082759
C        -2.03139993770695    1.39813222127119   -1.78103994729592
C        -2.58186133041400    1.37597105356990   -3.10749987817140
C        -1.97359787488969    0.36256658922825   -3.76668613650797
C        -1.03853428837378   -0.22715360252510   -2.84971800760259
C         0.21514716620308    1.30880543916581    3.15800977274853
C        -3.45604809361380    3.29432395284721   -1.12652545306103
C        -3.16123285166629    4.65369708911507   -1.16111287866101
C        -4.14389015036513    5.57595546371339   -1.47233081485201
C        -5.43375129081293    5.15299356929976   -1.74667717399614
C        -5.73606559779933    3.80195582850618   -1.71128791691992
C        -4.75375817830315    2.87734065371445   -1.40604445988157
C         0.29610773950906    1.86689622192739    4.52630890427471
C        -0.09332806482960    1.10574785966337    5.62400783967155
C        -0.01976991578805    1.63051698402668    6.90159435694276
C         0.44870581960093    2.91871767131842    7.09921915465754
C         0.83995747128303    3.68210863265457    6.01198610610193
C         0.76141468315364    3.16177236909896    4.73287301701632
H        -1.63961268937081    3.42671995626677    3.59359738351168
H        -3.08780276833732    3.97709582447748    1.41270506270561
H        -3.32745411330478    2.05172543638862   -3.47849231396813
H        -2.14070320801386    0.03566622720081   -4.77435997219497
H        -2.15325824348426    4.98122039646005   -0.95104768723693
H        -3.90267004681485    6.62865710365106   -1.50050344481687
H        -6.20115000224125    5.87401855379267   -1.98673532302654
H        -6.74147257759890    3.46719950179577   -1.92164545188951
H        -4.98912496068954    1.82337500658389   -1.37158614429029
H        -0.46392256508507    0.10302902216106    5.46701552014997
H        -0.32934084669273    1.03226327454017    7.74623081868874
H         0.50828490023456    3.32656552934010    8.09747792893460
H         1.20782852875832    4.68686637587376    6.16128556692499
H         1.07022695748311    3.75392132330421    3.88352002572523
N         0.89076181695899   -1.53506305766548   -0.97820394532657
N         1.09606739279476   -0.41809219615760    1.65306917344401
C        -0.21514747697786   -1.30880499170540   -3.15800880219807
C         1.03853413122137    0.22715298575254    2.84971889676787
C         0.68654458774200   -1.89835501043840   -2.27349005764513
C         1.86798142521170   -2.34814462917178   -0.49302014849181
C         2.03139006572351   -1.39814361861052    1.78104416445437
C        -0.29609071011379   -1.86688242170435   -4.52631207044683
C         1.97360735170800   -0.36255896434201    3.76668226146152
C         1.57719602395734   -2.96871872383859   -2.62579644007850
C         2.30966871218921   -3.24721808415182   -1.52248811916819
C         2.40524292106477   -2.30723964415819    0.79267432029622
C         2.58186306447661   -1.37597088366390    3.10749878597895
C         0.09335013717479   -1.10572456850264   -5.62400342624402
C        -0.76139362657431   -3.16175696580065   -4.73288962320094
H         2.14071224159065   -0.03565905150545    4.77435539334616
H         1.63961893872128   -3.42671123229665   -3.59360154409584
H         3.08779655047091   -3.97710181708035   -1.41270468428005
C         3.45602854904596   -3.29434460746371    1.12653377712806
H         3.32744741953378   -2.05173131587974    3.47849412639764
C         0.01979844678275   -1.63048254775179   -6.90159588021737
H         0.46394105890380   -0.10300570319454   -5.46700145910034
C        -0.83993170900132   -3.68208194543926   -6.01200802968472
H        -1.07021015707397   -3.75391336346704   -3.88354326515890
C         3.16120334775758   -4.65371477142871    1.16112082218320
C         4.75374159627973   -2.87736989337846    1.40605628590583
C        -0.44867574592543   -2.91868199204145   -7.09923389312792
H         0.32937567985097   -1.03222342864973   -7.74622675676414
H        -1.20779457197655   -4.68684180083847   -6.16131767496091
C         4.14385275237317   -5.57597932420864    1.47234191809489
H         2.15322682329037   -4.98123002474914    0.95105337576751
C         5.73604085821727   -3.80199182616429    1.71130564912180
H         4.98911608511516   -1.82340584458727    1.37159821960608
H        -0.50824107294857   -3.32652544383245   -8.09749583263425
C         5.43371599300157   -5.15302694296222    1.74669283315870
H         3.90262420117147   -6.62867868170770    1.50051398998092
H         6.74145068190099   -3.46724336836108    1.92166184393968
H         6.20110931873455   -5.87405783128880    1.98674953051870

