77
CSD_code = JIVTEN | q = 0 | S = 0 | Stoichiometry = C44H28N4Zn | MND = 4
Zn        0.00000180588933    0.00000063309282    0.00000343082191
N        -0.26427882819743    2.00544134747761   -0.12821627985154
N        -1.61512759938585   -0.13487978529471    1.21732408626181
C         0.52479350300668    2.88587288304390   -0.80177336359477
C         0.06747513033627    4.22731658030127   -0.56851286226337
C        -1.01108842724540    4.13722838436633    0.24396135074279
C        -1.21504021733179    2.74058562452968    0.50987697194991
C         1.63915022878613    2.56294466356818   -1.57463171813142
C        -2.39055710964015    0.89432551442544    1.65457990606836
C        -3.43943140257054    0.39040360755385    2.49643290977659
C        -3.27380841224074   -0.95087994104634    2.56751720783822
C        -2.13295819638866   -1.27204239176746    1.75623661157394
C        -2.22062034716629    2.24067274122809    1.33574844303859
C         2.35334264132147    3.67298570686844   -2.24355197993860
C         3.66138654605330    3.98812700614138   -1.88878500239490
C         4.32540457020077    5.02793700992288   -2.51400733492251
C         3.69383637057852    5.76226254572143   -3.50390359835635
C         2.39251500037487    5.45405510950663   -3.86376208486589
C         1.72457771921809    4.41814551014601   -3.23630806573896
C        -3.17025271317943    3.21156215302748    1.92359699127058
C        -4.03384980834490    3.93565490916269    1.10756970205094
C        -4.92397922617983    4.84016219768182    1.65771134032217
C        -4.95843146252177    5.03728157693462    3.02806278738137
C        -4.09904339229467    4.32375398485663    3.84680212184333
C        -3.21203230374297    3.41451393406644    3.29953973890910
H         0.52587861064814    5.11358824994659   -0.96178125998686
H        -1.60559490069115    4.93547985045659    0.64351580370774
H        -4.19974983230452    0.98702630884704    2.96131742125252
H        -3.85966700080120   -1.65977828283608    3.11921585405497
H         4.15027324625837    3.41798314530512   -1.11201363999468
H         5.33947215200967    5.26640643526993   -2.22769400056889
H         4.21412005387874    6.57239607725822   -3.99319444076356
H         1.89609715461469    6.02282559166133   -4.63659351156460
H         0.71092936083446    4.17283746804335   -3.51869885960808
H        -4.00888129241083    3.77655033690720    0.03917634190186
H        -5.59370544947057    5.39297356360334    1.01503097667978
H        -5.65258490148059    5.74502267615495    3.45665434689487
H        -4.11963135601713    4.47648286786769    4.91610453684585
H        -2.53643772455916    2.86138201104938    3.93597507327852
N         0.26427675421485   -2.00544251571372    0.12822447908743
N         1.61513315717308    0.13488268622362   -1.21732311695056
C         2.13292816785535    1.27203925656112   -1.75628261477859
C        -1.63920909631421   -2.56295420146127    1.57455082314089
C        -0.52482946765664   -2.88587969678246    0.80173110275199
C         1.21507030207993   -2.74058141042019   -0.50983138835281
C         2.39058992904899   -0.89431943920535   -1.65454333334617
C         3.27378904923919    0.95087846083058   -2.56755085000782
C        -2.35345208413203   -3.67300719484930    2.24339486927022
C        -0.06749472691615   -4.22732084076707    0.56848612958267
C         1.01111324555312   -4.13722703707535   -0.24392990999975
C         2.22067812269202   -2.24066437174995   -1.33567518964850
C         3.43946040916410   -0.39039785920598   -2.49640373848000
H         3.85962305868962    1.65977027860062   -3.11927827052875
C        -3.66149058192536   -3.98809347714852    1.88855977647609
C        -1.72475349656707   -4.41822608737483    3.23614958908808
H        -0.52591598483137   -5.11359401307443    0.96172322742545
H         1.60564121117396   -4.93547498832107   -0.64346211326912
C         3.17036855771085   -3.21154514169023   -1.92344906469522
H         4.19979819069558   -0.98701502207171   -2.96126015780986
C        -4.32556773793037   -5.02791070175843    2.51371017149970
H        -4.15032731953406   -3.41789999309978    1.11179335914260
C        -2.39275238018506   -5.45413894297054    3.86353772897837
H        -0.71111203868962   -4.17295575994730    3.51859970003367
C         4.03394636251779   -3.93558211991604   -1.10735289733497
C         3.21221980879344   -3.41454637112564   -3.29938143424606
C        -3.69406497065848   -5.76229811774287    3.50360365861434
H        -5.33963104634514   -5.26633687683708    2.22734367136768
H        -1.89638400864920   -6.02296067997612    4.63636424979356
C         4.92412029701906   -4.84008685582780   -1.65741568945504
H         4.00891354077778   -3.77644813343859   -0.03896606178215
C         4.09929031144585   -4.32376917702315   -3.84656589309321
H         2.53664473483264   -2.86145397858077   -3.93587088662797
H        -4.21439275731468   -6.57244105229303    3.99283404011609
C         4.95865416294634   -5.03724331634606   -3.02775794414806
H         5.59383454461918   -5.39284862344185   -1.01468320268160
H         4.11993124899378   -4.47653903160980   -4.91585963403330
H         5.65285034056855   -5.74497545841930   -3.45628913702024

