95
CSD_code = JIVVIW | q = 1 | S = 0 | Stoichiometry = C50H38IrN2O2P2(1+) | MND = 6
Ir       -0.09490239125892    8.84912410022947   13.03082971302212
P         1.07170689240430    9.58249726533311   15.01190224178850
P        -0.96385387228601    7.21328387137754   14.55322832176885
N         1.69378588968845    7.94393612081025   12.59368193621834
C         0.75695077827919   10.29173753432903   11.88950353355786
C         2.55689456564111    8.67436003027611   11.84726690071212
C        -2.34694275419582    8.62686874107172   11.19431062089245
C        -3.71489555344907    7.29676929877240   14.54378025377968
H        -3.60493947076146    6.71443521386264   13.63769090304565
N        -1.91144563353837    9.79989780393789   13.20436675215362
C         0.51846801735388   12.26356709522906   15.21055981093557
H         0.50401897418545   12.20780912787465   14.12905636159921
C        -2.26476040099757   10.60466752301173   14.20503051188807
H        -1.51940715765951   10.79681141693925   14.96436743588051
C         3.43488579645218   10.83907822842871   14.26129595365695
H         2.80466818358018   11.68987817294075   14.04580819242643
C        -1.01053921321586    4.90056283514652   13.01273306171722
H        -0.69183417346114    5.54963547472300   12.20820393735117
C        -2.58080673440094    7.65302274110931   15.27037126266628
C        -4.96665453227552    7.68090704240690   14.98347099742916
H        -5.84377395167918    7.39723490659887   14.42215833920200
C        -1.22037714075447    5.43141316973877   14.28081956676697
C        -1.01467402146005    8.18490470200297   11.33923078207743
C        -1.28069271709553    6.92253160283422    9.28452374369065
C         0.24551137391210   11.53964698740957   11.57416315872227
H        -0.75415558230617   11.83331886180708   11.86626993577065
C         0.93261734883267    8.25067428796399   16.24103145555759
H         1.57020501747060    8.29698709756010   17.11818445509144
C        -2.60288691040838    7.35564829890058    9.17117118126701
H        -3.18888551038662    7.01414454288766    8.33180849966854
C        -2.71142256543545    8.41689554041207   16.42409295711916
H        -1.83394207807507    8.71384746258023   16.98278183318609
C        -5.09520945472266    8.42631660624433   16.14550027097661
H        -6.07386220882080    8.72014899139278   16.49191560523446
C        -1.22853103377922    3.55340521466925   12.78226022487655
H        -1.06945208330258    3.14493449351934   11.79588592541923
C        -1.87966450206806    3.26549019545679   15.07682255024073
H        -2.22653768081348    2.62875143361759   15.87649073857293
C        -3.96899764717512    8.79214067251495   16.86310364529200
H        -4.06833896548786    9.37225220132344   17.76812961672573
C         2.88182904584000    9.68821599196004   14.81566979596820
C        -3.12928435968002    8.20776988605562   10.11446402824529
H        -4.14845224294797    8.54540866176387   10.01097328545444
C         0.27474764947959   13.52656514162145   17.23172517369624
H         0.09526554168256   14.46588143260404   17.73126963396792
C         2.81806142001862   10.92179548246175   10.73978582978063
H         3.81976735823878   10.68562575203490   10.41633773872318
C        -4.09567257202490   10.08585344127525   12.28085827272512
H        -4.80437556030018    9.86222322590126   11.50138493946544
C        -1.65589014080312    2.73535058494873   13.81482785172062
H        -1.82501027550782    1.68482029921652   13.63596162103876
O        -0.64866503200368   14.17491555601263   11.03268565264128
C         0.48216073735621   12.37658008100368   17.97543084151058
H         0.46316131350961   12.41975422007937   19.05391054084454
C         3.27643728064475    6.15964269462817   12.67876889912212
H         3.51466719393669    5.16674372183557   13.02303585794808
C         3.70005987782437    8.59412189232125   15.08081888953787
H         3.27938130619120    7.68729270867115   15.49431646346137
C         2.05856838871768    6.72658787026568   12.99347283330013
H         1.34273234843883    6.17404202242135   13.59068947184842
O        -1.32414768628544    5.55324174415772    7.34392923836150
C         3.80715930846168    8.16011988110208   11.50254534402502
H         4.48315123535394    8.75176346200141   10.90873583667712
C        -4.44818682664159   10.92664302250712   13.31638008961745
H        -5.43085648680830   11.36915623531514   13.35578226328296
C        -2.81854649038405    9.52670131189421   12.23654460074863
C        -1.66935430501324    4.61072034112992   15.31247019097895
H        -1.86996506363877    5.02785935826264   16.29026106651400
C         2.06811195877866    9.99032464212002   11.46383550716801
C         0.09068722647937    7.24032180799786   16.03617793317334
H        -0.00447342456002    6.41770281067895   16.73754701163098
C         4.78933702235923   10.89895054074014   13.99335511818174
H         5.21157508841131   11.79734118122545   13.56965401719121
C        -0.50184609305289    7.34470968356344   10.36152357027325
H         0.52229216596440    6.99571984954581   10.41222867270880
C         0.74617384309938   11.10705440613781   15.95641064763616
C        -3.50958418435256   11.19135529328474   14.30362333887911
H        -3.73334635369752   11.84070039682635   15.13346970635238
C         5.05506043738856    8.66062127808593   14.81244057433187
H         5.68510889380800    7.81105865032558   15.02919750197655
C         0.71763116607345   11.16691764177266   17.34498246594885
H         0.87602899267337   10.27981951871214   17.93985182374590
C         5.60153163223769    9.81020743472003   14.26692700016588
H         6.65905043245671    9.85807852750255   14.05812525893903
C         4.17295026437617    6.89530556503329   11.91462724676820
H         5.13432273298654    6.48626134356124   11.64706966891825
C        -0.71755068008509    6.01498066707539    8.27285866106246
H         0.35219481227707    5.77238462077078    8.44021853177590
C         2.28726380974524   12.15726396717104   10.44224201579975
H         2.86662599080355   12.88221605787803    9.89047167323153
C         0.99617590250688   12.47724673136137   10.86392764732512
C         0.29029198343925   13.46899360174027   15.84692811850661
H         0.11789306413952   14.35954688460146   15.26206322802754
C         0.40935155715265   13.79942349631943   10.59684033639873
H         1.03387189843890   14.45106047057024    9.95726328473731

