94
CSD_code = JIVVES | q = 1 | S = 0 | Stoichiometry = C49H38IrN2O2P2(1+) | MND = 6
Ir        6.83541433023501   11.35545027765451    3.67681901540785
P         6.14255115639293    9.68473579713165    2.05927341799994
P         6.10321964440946    9.31686279528940    4.87855308559174
N         8.69744160768276   10.61174109215938    4.08269839163601
C         2.34085334164246    8.36669447568189    7.33811482284170
H         1.46406130763723    8.16200861441519    7.93243182463154
C         7.34744097906947   12.54159022450546    5.24454182035032
C         6.56051295302135    7.71328188074275    0.10701791425627
H         5.76882195692463    7.16044277387211    0.59453705525505
C         9.31372881862381   11.12586245388012    5.17262218576783
N         5.06770424165190   12.30729354186446    3.27779740339161
C         3.89629543596415   12.02704493795038    3.84735830019276
H         3.90317072914452   11.28720475608655    4.63619804160699
C         4.22870850465410   10.48245240731386    0.26157576263855
H         5.08788996317454   10.78376335492267   -0.32398718491822
C         6.44106741405623   13.50734485283193    1.77204829795280
C         2.94915640855673   10.72530782952337   -0.19760532384322
H         2.80288363186155   11.21585334323563   -1.14769521599086
C         3.32602725746069    9.47600589143006    2.25190588513705
H         3.45540095545899    9.00716053406792    3.21838058688440
C         7.68828743087199    9.23216658401229    7.09317782419079
H         7.25398893433910   10.21042051533520    7.25406095139870
C         7.47797618454190   12.75420815850032    2.36240180469142
C         6.94511112232223    8.95699997459805    0.59838042409479
C         4.58592607251614    8.88876487048165    5.79748422208401
C         5.11051242504592   13.24729295068822    2.30190334670428
C         4.42614312997564    9.83696729798615    1.48160837172857
C        10.55141186868650   10.63311368029764    5.58735429829672
H        11.02780903907973   11.04927495050242    6.45872975981228
C         6.60373925954102   13.55146739826436    5.83648959049907
H         5.65339814409370   13.85550423404093    5.41643569440427
C         2.73457616940701   13.57647451503708    2.46361238140487
H         1.82802816366852   14.06411651416401    2.14209905337127
C        10.53109060271915    9.12092788302657    3.74924781015584
H        10.97943990694642    8.34376658456188    3.15270342222653
C         6.07888488778699    8.30598253834094    3.30835995324735
H         7.00539354976088    7.73202649643985    3.22031521337184
H         5.22515133918645    7.63722099711297    3.19066881219807
C         8.57137810494843    9.15807428463399   -1.15694166047832
H         9.35109723331348    9.71876617244759   -1.64928665571535
C         4.11150398316498    9.84536242983382    6.69197721777932
H         4.63241113916066   10.79076845115582    6.78781420646568
C         2.82095814308387    7.40631358764340    6.46217404906456
H         2.32274164233276    6.45218866082364    6.37997626170901
C         7.94940081732331    9.68099355098821   -0.03691300512287
H         8.23470112791763   10.65155377184371    0.34983118763769
C         8.76609617609931   12.94003193590940    1.89260031574291
H         9.60582957840741   12.39314516494677    2.29935211070182
O        11.34251908095476   13.28827958888607    0.75834389644343
C         3.94556281303532   13.88503858528374    1.87740547420399
H         3.99465233432661   14.62197770559724    1.09348308671560
C         7.18808555395897    7.19656260655898   -1.01090422694127
H         6.89210640153564    6.23210574187170   -1.39493252035992
C         7.84958977598223    7.22984265945941    5.77141925113827
H         7.55316480971832    6.62504492020600    4.92637703979166
C         6.71607288623971   14.42549468617806    0.75492048594240
H         5.92156899883380   15.00303990652482    0.30872792839564
C         8.61010831852101    8.72360746561359    7.98678445235814
H         8.89805667703180    9.30287795760035    8.85060588723670
C         9.03703934307000   12.85230549084780    6.98319579172775
H         9.98036517591652   12.58378340846118    7.43205082425810
C         9.30830263214347    9.64902692428384    3.39207032671098
H         8.80437640003783    9.29234052378874    2.50186167670415
C         8.27763237035724   13.84835355365617    7.55288204145880
H         8.60614462323244   14.36874397670584    8.43944680675395
C         2.04615719404099    9.71557565559865    1.78313608631005
H         1.19600122578115    9.41714518176104    2.37829733089286
C         8.77536788013779    6.72582870117794    6.66883564285434
H         9.19304941746310    5.74349180705096    6.50753830466001
C         8.19247522885658    7.91638845972347   -1.64091311105013
H         8.67828349690254    7.50786098979480   -2.51349675648113
C         1.85525001401456   10.33663935506257    0.56073924966531
H         0.85532244575622   10.51969538836222    0.19927655249241
C         9.16101273768282    7.47042178734614    7.77048617149467
H         9.88390350028174    7.07021595165663    8.46424247308792
C         7.30764411099301    8.49167045460533    5.97584372488072
C         9.04205545391749   13.84904619560921    0.86975148935301
C         2.99214591127081    9.58365012888937    7.46028067609936
H         2.62871322197139   10.32686905813915    8.15342523313880
C        10.42724485032405   13.97897708179503    0.39088545095335
H        10.57132105671075   14.77362530143146   -0.36498901746485
C        11.16422488472161    9.61979841204644    4.88041319692483
H        12.12025767201028    9.23060666283372    5.19253569377002
C         2.71149488202719   12.63319845441058    3.48131893860481
H         1.79455562112239   12.36759425217558    3.98068725570062
O         6.53232977264736   15.85622788018850    8.60881473223800
C         3.94493583974355    7.65957279942333    5.69632905396951
H         4.32294969425726    6.89294526948887    5.03438481874228
C         8.00778033332084   14.59715412322556    0.30726740392633
H         8.22229699744833   15.30223093997415   -0.48170838089753
C         7.05495982879950   14.20670013578364    6.98206829749760
C         8.58267899588886   12.19622926436270    5.83581809203326
C         6.24742968626074   15.27242826924344    7.59776866071307
H         5.31687303684852   15.50389034915131    7.04042146489213

