90
CSD_code = JIVVAO | q = 1 | S = 0 | Stoichiometry = C47H38IrN2P2(1+) | MND = 6
Ir        3.20120459986779    7.60939250699037    4.42307812500100
P         1.50290319984688    7.83707640589612    6.21937457257555
P         3.69916094536378    6.03318609619318    6.20607232886468
N         4.76866392353130    8.70975687686211    5.14080977040418
N         1.69616056592368    6.54932571552636    3.53649911296437
C         4.64029910754753    7.06883176391678    3.10075476732205
C         2.50152152453636    9.01519720586078    3.13914298776142
C         4.52219183585140    6.21590183399780    2.01177558444962
H         3.55294636805405    5.84058367428591    1.71354956928361
C         5.63615791035806    5.83581483598824    1.27941530632333
H         5.51995888355955    5.17649848503750    0.43210609628665
C         6.89616795869532    6.29704547405582    1.62871142503356
H         7.76033507937949    5.99416268670157    1.05789014790826
C         7.04237619203445    7.14887880947444    2.70371356825992
H         8.02584129493862    7.50648023303003    2.96666235632822
C         5.92403717003075    7.54150143496610    3.44131631374301
C         5.97262490846042    8.45200436438117    4.57388544711348
C         7.13235349964015    9.04704961714997    5.07119941892018
H         8.08352510021953    8.82252639019585    4.61850034101569
C         7.06032348142931    9.92214293519454    6.13509188987273
H         7.95120228932571   10.38815817911345    6.52561400521004
C         5.81619851332530   10.19697375751086    6.68647672620334
H         5.70555747556441   10.88278193889072    7.50996782303947
C         4.70847604856470    9.56481053314244    6.16094255988998
H         3.72901874096508    9.75672171217902    6.57693797343539
C         2.96695653163028   10.30886979035972    2.93998959290674
H         3.87139121736351   10.64379674729670    3.42956934351844
C         2.29544762686585   11.19049764784075    2.10770353014663
H         2.67994679552001   12.18925786578833    1.96348378011966
C         1.13468892034372   10.79716640452098    1.45865864022869
H         0.61501340653209   11.48859217180269    0.81338213172324
C         0.64844344323164    9.51899122720905    1.63611279948429
H        -0.25462895389798    9.21938549510755    1.12718367510127
C         1.32288595793562    8.62435548957739    2.46939944312064
C         0.89172112624071    7.25679180917403    2.70774437812011
C        -0.24568479340132    6.66765439296372    2.15237986608507
H        -0.88481516975159    7.24554726048725    1.50646733201406
C        -0.55045660309692    5.35279003926868    2.43198608736173
H        -1.43084078140789    4.89087096880588    2.01383629015153
C         0.30759711474613    4.62950246619119    3.25182655861767
H         0.12474043654097    3.59209397281658    3.47918460996972
C         1.41199314453167    5.26847151052632    3.77397512081024
H         2.10752935390768    4.72370057713109    4.40173554990370
C         2.04508882012738    6.24642461145417    7.03306853034992
H         2.08778317646375    6.26737082886392    8.12292291641611
H         1.40447448786381    5.42178932089065    6.70930501317392
C        -0.24482378619208    7.59669599482077    5.74303627035928
C        -1.02635628927187    6.48702365645934    6.03313228070701
H        -0.64335429040919    5.67332458851620    6.63263045882982
C        -2.32610421675049    6.41701292957655    5.56024026112181
H        -2.93052444436221    5.55260836621796    5.79166302562858
C        -2.85140532015733    7.44710189959701    4.79951909859522
H        -3.86458018338016    7.38346406650270    4.43338433992089
C        -2.07810639654479    8.56188790541946    4.51553669693955
H        -2.48486908422711    9.37164877904340    3.92898081491860
C        -0.78103262788487    8.63503886724842    4.98259031137894
H        -0.16838131421616    9.49886512356788    4.75855311458685
C         1.22232842899770    9.02805013049137    7.57462038161998
C         0.80147979936722    8.65062344500569    8.84479224105025
H         0.63982934107934    7.60852373580582    9.08380370700444
C         0.57021357700979    9.61628358522126    9.80770353435021
H         0.24619358540190    9.32060913175177   10.79418508626518
C         0.74381590456488   10.95799549505600    9.50741955250306
H         0.56193746096387   11.70597274409427   10.26353545676012
C         1.13832400745707   11.33957408683532    8.23545119521649
H         1.25938078495030   12.38491144677800    7.99508028445719
C         1.37664457026390   10.37797223578062    7.27046931784688
H         1.67398413532847   10.66996976910783    6.27026483368186
C         4.00748486754505    4.23994661961761    6.23981975805805
C         4.52587191641747    3.64190079559873    5.09538106564343
H         4.72282520549760    4.24939594699203    4.22023664212006
C         4.78833825394589    2.28331084392011    5.08717781115300
H         5.19330224792071    1.81871163205386    4.20109111474517
C         4.53085805799430    1.52331460079242    6.21650768130318
H         4.73366377124382    0.46343450307422    6.21004584774191
C         4.01688960386808    2.11937023609228    7.35847333005730
H         3.82320152665920    1.52413178553735    8.23802361455135
C         3.75664233202355    3.47677402566970    7.37560795796903
H         3.36790903911811    3.94748309034026    8.26849951910332
C         4.88980932590234    6.60769668561786    7.45426213386408
C         4.57352503049184    7.52293492299854    8.45201383488813
H         3.56077289747453    7.88349123755516    8.57362164614312
C         5.56111164496499    7.98526573819147    9.30423547514522
H         5.30530304835214    8.68339072775197   10.08726410640101
C         6.86945686508155    7.55964161135809    9.15270492620196
H         7.63555005525926    7.92229675237577    9.82040401949294
C         7.19535346333399    6.66935484691733    8.14096821642282
H         8.21613604782362    6.34180370628240    8.01599828461512
C         6.21302629472788    6.19913087756808    7.29211196073385
H         6.46059298708336    5.50593676618962    6.49845538336601

