77
CSD_code = JIVVAL | q = 0 | S = 0 | Stoichiometry = C44H28N4Zn | MND = 4
Zn       -0.00001597250970    0.00002250821714   -0.00001565599658
N         1.58263476255618    0.48887434332542   -1.16688024426404
N        -0.55840672508386   -1.40764523323204   -1.34761065671625
C         2.53998636519247    1.41480223326690   -0.88846459361456
C         3.54707541576348    1.39778216824916   -1.91234688140658
C         3.17435688542580    0.45794359265984   -2.81199568894807
C         1.93866163265298   -0.10159785184102   -2.33993231629917
C         1.24706133897077   -1.12528374348430   -2.98549621758111
C         0.08300144093782   -1.72317157677937   -2.50550332174925
C        -0.62693055517868   -2.76985002689815   -3.18613917954563
C        -1.69337817383582   -3.08500344190925   -2.41475302137371
C        -1.64660881310834   -2.22081599368492   -1.26856633343024
C         2.58095557462074    2.23964660660720    0.23445991070984
C         1.79551880409997   -1.61809774214380   -4.26867071315517
C         1.83762868349800   -0.78580733926289   -5.38281579471160
C         2.34856551834130   -1.24691898099312   -6.58257695174849
C         2.82958878064547   -2.54170495328938   -6.68251627118036
C         2.79498297280275   -3.37505931975375   -5.57695044273402
C         2.27874735572113   -2.91828635286323   -4.37781533589920
C         3.70314919335679    3.19897018072244    0.33741840444373
C         4.65227885364635    3.07216496954893    1.34675975215271
C         5.70231275661819    3.96797638071540    1.43692290000070
C         5.81395591414651    5.00396033015856    0.52473186696281
C         4.87196880274335    5.13830976412662   -0.48146941055449
C         3.82462705441834    4.24006558424470   -0.57753802826361
H         4.42624528673327    2.01193625486384   -1.92436115574651
H         3.68949049742672    0.15459979893704   -3.70244973594957
H        -0.34512005516728   -3.19627341235328   -4.12897840229910
H        -2.44021970509852   -3.83334854930555   -2.59475308208513
H         1.45819913464851    0.22271659607628   -5.30345544323001
H         2.37185507648696   -0.59351895897659   -7.44260325982761
H         3.23055961715153   -2.90021916947452   -7.61905746140060
H         3.17184554812506   -4.38496883229986   -5.64901713105522
H         2.25606270579374   -3.56477845070659   -3.51241072395235
H         4.56621149000029    2.25994173185773    2.05408349880670
H         6.43626690408267    3.85723542540838    2.22189597937906
H         6.63298105246805    5.70419597204338    0.59737909356871
H         4.95382590599287    5.94569915438414   -1.19459312677206
H         3.08636865503217    4.34490682757652   -1.35943599528772
N        -1.58264630662861   -0.48885670575904    1.16686722823779
N         0.55839675757320    1.40766731046685    1.34760230129162
C        -2.58105120583681   -2.23951937176494   -0.23454500278847
C         1.64656074612895    2.22088896264004    1.26852209612204
C        -2.54004044754383   -1.41473151623390    0.88841700272387
C        -1.93859553322586    0.10152257851725    2.33998896454351
C        -0.08293393354886    1.72309825660919    2.50556567910932
C        -3.70334892708924   -3.19870778741030   -0.33760314902006
C         1.69333958760890    3.08506304661464    2.41471854571404
C        -3.54711713340287   -1.39771632123515    1.91231158595842
C        -3.17431756983926   -0.45797852239432    2.81203284108245
C        -1.24694368328632    1.12514563776244    2.98560232913328
C         0.62697423794582    2.76980852924168    3.18617788125417
C        -4.65240657719181   -3.07174576707753   -1.34699273037612
C        -3.82500012380934   -4.23983039494799    0.57729722805427
H         2.44014760319960    3.83344631853045    2.59469170840518
H        -4.42631905024317   -2.01182336659408    1.92430247049754
H        -3.68940563845133   -0.15468170227223    3.70252869320519
C        -1.79531758352136    1.61783483221447    4.26886442388078
H         0.34520958303406    3.19617748489956    4.12905401188109
C        -5.70253769436917   -3.96743247834382   -1.43725883531407
H        -4.56620336006254   -2.25950151827860   -2.05427635097956
C        -4.87243802558317   -5.13795061932283    0.48112510244514
H        -3.08679829317054   -4.34479467712178    1.35923062963551
C        -1.83731852207509    0.78542604402761    5.38292578653829
C        -2.27856463988341    2.91800354624153    4.37818380830381
C        -5.81435101658226   -5.00344719022373   -0.52512384525690
H        -6.43643378410539   -3.85657139985641   -2.22226867394714
H        -4.95443091279803   -5.94536130813474    1.19420939742807
C        -2.34815667679948    1.24640491080395    6.58277968582853
H        -1.45787694518342   -0.22308306473929    5.30342518600471
C        -2.79470272041668    3.37464281855494    5.57741280777940
H        -2.25596535750286    3.56458675678202    3.51284416517423
H        -6.63345436734194   -5.70358297400331   -0.59784649794997
C        -2.82919290770999    2.54117311745597    6.68289566043314
H        -2.37136710867162    0.59291089509430    7.44273703812169
H        -3.17158279622462    4.38453652739006    5.64961584469950
H        -3.23009965350931    2.89957861812913    7.61950615290004

