51
CSD_code = JIWBOH | q = 0 | S = 0 | Stoichiometry = C16H24Cl2FeN8 | MND = 6
Fe        4.85217329899987    0.00021211751369    8.52737386320372
Cl        6.75295682539487    1.08192193877298    8.91934482580492
N         4.07030650920712    0.70535152371803   10.27641663210169
N         2.63068418358418    1.14703843450473   11.87912675571665
N         4.12238350495166    1.63189137959589    7.50767453824122
N         2.76326905212159    2.92513595147893    6.36049307627341
C         2.80914039218780    0.64613344358687   10.64171852454517
H         2.02666649066545    0.22542625257171   10.04293818145812
C         3.85882290063008    1.55427673261166   12.31868299094541
H         3.99980545579982    1.99717243820020   13.28339383452848
C         4.73925359408302    1.27342354720324   11.31855140486454
H         5.79392282146216    1.44993185391737   11.26047158629842
C         1.39250661517292    1.24350430554732   12.59589057815293
H         0.60929465232040    0.75254251686043   12.02118184602013
H         1.11802437452109    2.28981944520630   12.75209186230571
H         1.47781204712477    0.75679348800303   13.56959624628140
C         2.91580194262176    1.75019330058123    7.00032358418423
H         2.15514972931448    0.99904120205949    7.07477346579209
C         3.95137346736423    3.59113829038604    6.47420035604989
H         4.10170568007310    4.56269508073151    6.04977780638640
C         4.78197751675989    2.77942328183732    7.18508896775296
H         5.79588599981154    2.93349376720529    7.49373867044583
C         1.58439030668210    3.39135761437575    5.69026327264501
H         1.79801880618115    3.59615218783194    4.63884615509642
H         1.21575964873322    4.30859242160888    6.15576192263844
H         0.81318464212225    2.62580540975320    5.75291771850300
Cl        2.95094010840765   -1.08091202076376    8.13562543629410
N         5.63391873701637   -0.70520752184655    6.77833755553945
N         7.07363038568245   -1.14714113382159    5.17578466569509
N         5.58178118245855   -1.63158618088314    9.54686827314230
N         6.94104615340965   -2.92514823412361   10.69351518623879
C         6.89506249576929   -0.64581180870349    6.41299541113795
H         7.67744382379746   -0.22471610938987    7.01162108931264
C         5.84558594650210   -1.55482669320361    4.73638228465611
H         5.70469117476677   -1.99809987590633    3.77183381015641
C         4.96508776664859   -1.27378567524447    5.73640493676487
H         3.91045733308614   -1.45049937433473    5.79454600600617
C         8.31184192804223   -1.24356358636840    4.45907590208593
H         9.09494266807891   -0.75229629436744    5.03367734104837
H         8.58652428829195   -2.28986929852786    4.30317667573560
H         8.22647207450596   -0.75713325805974    3.48523615575009
C         6.78847257108913   -1.75008529268964   10.05391917470739
H         7.54919152296923   -0.99901005366719    9.97940977945545
C         5.75284616353351   -3.59100588567568   10.58000879137949
H         5.60252606166920   -4.56262433786134   11.00428955206799
C         4.92213733945046   -2.77908656703165    9.86947501683066
H         3.90813785380881   -2.93301380015679    9.56106065144653
C         8.12002765843839   -3.39159660806104   11.36340294930941
H         7.90663113698210   -3.59644436762149   12.41485518181642
H         8.48840025159966   -4.30884801926798   10.89773433342024
H         8.89133291611481   -2.62615592808115   11.30062517376148

