45
CSD_code = JIWCOI | q = 0 | S = 0 | Stoichiometry = C18H22Cl2N2Ru | MND = 9
Ru        4.27066138641294    8.20499116155991    5.17001354764544
Cl        3.40309738410310   10.10742157912170    4.11053446176552
Cl        6.11776184829412    9.46971060840477    5.85813738936369
N         5.23975535783305    7.83087531637078    3.51202615112738
N         7.68741305929963    6.37864297601393   -1.01665584611508
C         2.23355477725083    7.17634422471439    5.31789379923571
C         3.17748157388761    6.14684987088519    5.13595817542607
C         4.33345025698630    6.07715462372631    5.98968875265674
C         4.45439239427142    6.95573927076665    7.08771369495563
C         3.47754051596841    7.99120616529386    7.28622951898542
C         2.36089627673128    8.08140117206910    6.42970150781226
C         1.07005720029567    7.34643444530659    4.37994902011462
H         1.24223441907877    6.84098688838692    3.43443463324557
H         0.93305498864082    8.40505642335997    4.16575611496451
H         0.15138637815265    6.95598423375802    4.82091780135283
C         2.94377133877524    5.06192084522846    4.11458713203351
H         1.87924886500093    4.91408238464969    3.95276369813477
H         3.35532860702510    4.11880435639660    4.46507815763281
H         3.40514735573213    5.30027894334675    3.15453984783243
C         5.37477240351557    5.01292603706866    5.74895859755741
H         6.35924134626739    5.36595700870388    6.04396307262954
H         5.42756530810356    4.74545058774086    4.69647123671580
H         5.14383356908058    4.11346383757756    6.32321483720391
C         5.57613989451471    6.81816093203414    8.07636628745278
H         5.99361094572489    5.81606495662055    8.07333614551027
H         5.22284096586092    7.03349991588678    9.08173303886741
H         6.36664981358334    7.53197489746129    7.83275736412708
C         3.66849089611808    8.95934758458571    8.42448670253201
H         3.30539480626032    8.53291286942802    9.36166165448348
H         3.14610492813448    9.89262789152146    8.23582681692399
H         4.72368105235692    9.20126934512402    8.53229726742059
C         1.26309878676839    9.07877233865156    6.67625791268522
H         0.29852208817323    8.66053705665938    6.40026846845476
H         1.43187724687030    9.97298267863808    6.07214232093470
H         1.21786732022201    9.36774268310894    7.72217443742940
C         4.58512772401217    7.83166349219698    2.33824716647323
H         3.55137348525772    8.15749233532133    2.36790529374030
C         5.17813605421859    7.47792907326638    1.14791504044675
H         4.61197391788846    7.49973185116856    0.23001772166849
C         6.52500966424155    7.09736409347448    1.14486363921552
C         7.16844588745933    6.70965788086111   -0.04899063390214
C         7.20893105419745    7.10874562810388    2.36575410058455
H         8.25152835396881    6.83671649245011    2.41278313593213
C         6.53545487122753    7.47732079575581    3.50807853567607
H         7.04469363223469    7.52340224723043    4.46354228106700

