105
CSD_code = JIWKIJ | q = 1 | S = 0 | Stoichiometry = C52H48AuP4(1+) | MND = 4
Au        3.95354862708014    4.29130510800643    0.17224105534019
P         1.88253865364339    4.87151131051003   -0.79528894768803
P         3.95125284960194    2.25704830075517   -1.22426907204694
P         4.47380785370418    3.82695996477374    2.46690337408045
P         6.01118238717344    5.51322587977433    0.00656588532432
C         1.93546601361212    6.04208329517843   -2.17470456650690
C         3.17796106495960    6.49594188597182   -2.60124574887716
C         3.26704287155192    7.37823303410123   -3.66229379280260
C         2.11304136474986    7.80479564473787   -4.29848822963949
C         0.87169867448321    7.34868917532165   -3.87802731999894
C         0.77548035789628    6.46826860823944   -2.81768640631050
C         0.44488700440507    5.37088149455898    0.17681141955690
C         0.28046739339543    6.73580645367956    0.41726473594797
C        -0.71322816943273    7.17274580387786    1.27112188450234
C        -1.53451637487734    6.25410307596443    1.90688305760288
C        -1.35395240973408    4.89745620116200    1.69320363820778
C        -0.36092980569509    4.44994657832759    0.84024549020642
C         1.39238662418238    3.31719010073657   -1.64921946601739
C         2.59168487010484    2.72538459671713   -2.38403085545784
C         5.18720154307131    1.47729992267513   -2.29571190339044
C         5.18002341505279    1.51160268556688   -3.68509011569190
C         6.22361698041943    0.93352467603711   -4.38797551363306
C         7.27904597332129    0.33790399536200   -3.71841679400130
C         7.30057142327960    0.32238961972314   -2.33208160842473
C         6.26409838373026    0.89650277372016   -1.62553425410754
C         3.19056062349347    0.86503225639006   -0.34189570699517
C         2.44730690525724    1.16615908330120    0.79684422880484
C         1.83237097804632    0.15836538112793    1.51417761375229
C         1.97113661788696   -1.15835943516136    1.10698509545549
C         2.71658689761613   -1.46279941378531   -0.02082721051744
C         3.32526600240226   -0.45771436193698   -0.75020087695720
C         4.48569888318984    2.16297710474865    3.17299901677035
C         3.67432306270394    1.79602106833663    4.24116607996338
C         3.62561285585621    0.47120331775252    4.63711373111976
C         4.35871911912203   -0.48972639844514    3.96068341512566
C         5.14288014068230   -0.13087012657924    2.87516643295651
C         5.19897500132114    1.18897443801767    2.47631881709592
C         3.74130569254217    4.91098227539914    3.71522561667928
C         4.20257602726769    4.96992388371760    5.02872817099970
C         3.59511832319601    5.82888310557730    5.92449330762643
C         2.53347896946464    6.62599984508651    5.52031329958390
C         2.07250326268059    6.56757076662525    4.21556211232166
C         2.67603002596492    5.71067183398621    3.31342988845218
C         6.25676137871137    4.29507168636311    2.50540607228626
C         6.48041301962094    5.62038706856814    1.78151972117540
C         6.17524596686306    7.24168724768944   -0.50335099517985
C         7.26460453099895    7.74062766465452   -1.20676158250061
C         7.27370266235853    9.07252032946386   -1.58216259271979
C         6.20503198457575    9.89650469677410   -1.26756582444762
C         5.11320744753857    9.39418900866489   -0.57537457721109
C         5.09386106687379    8.06625474057634   -0.19873898603742
C         7.34670653923124    4.63727350217282   -0.83847975748907
C         7.08370626104939    4.35180931932379   -2.17903707986646
C         8.01004304170280    3.67006548004296   -2.94132804479268
C         9.19339995547087    3.24037892920314   -2.36085706839329
C         9.44754937270360    3.50011024140028   -1.02443636966871
C         8.53084737252575    4.19888750588854   -0.25759639680151
H         4.07126071482146    6.15636068688743   -2.08718708329495
H         4.23353616228603    7.73549787968247   -3.98567586569701
H         2.17816005215119    8.49742915982966   -5.12367265825143
H        -0.02401589380300    7.68462223553938   -4.37846463843800
H        -0.19020483689558    6.11793878691373   -2.47825979310914
H         0.93215337370320    7.44542734208999   -0.07741321567051
H        -0.84685040903915    8.23037062263668    1.44370568381793
H        -2.31148452680307    6.59575369446761    2.57353896643183
H        -1.98771948569880    4.18249808382565    2.19614400050863
H        -0.22034355284440    3.38856500208335    0.69278057509407
H         0.57926988672958    3.54136877416351   -2.35059096953724
H         1.02823281220714    2.60680798635289   -0.89996102519645
H         2.29131548203576    1.83367270867071   -2.94750552226507
H         3.00735388463421    3.46916096167391   -3.07624519814651
H         4.36748526080393    1.97470652180046   -4.22480154656000
H         6.21002114738578    0.94871341624856   -5.46787129319044
H         8.08666405342746   -0.11132911183507   -4.27591893042534
H         8.12567047457818   -0.13486317529719   -1.80680329605927
H         6.26735709224938    0.89203140348214   -0.54248690581208
H         2.36681988031726    2.19835163613252    1.12578182014000
H         1.25569794138289    0.39869926476805    2.39501405596809
H         1.49969974649001   -1.94865269803909    1.67086706797097
H         2.82333776220952   -2.48997544957752   -0.33584873092372
H         3.90590750149694   -0.69682499472802   -1.63005876370765
H         3.08853498707617    2.54304474392048    4.75888986959900
H         3.00658824297543    0.18715514359512    5.47507563768722
H         4.31260812627717   -1.52170244649494    4.27297856322647
H         5.70036601468954   -0.88279697271567    2.33673949229033
H         5.78614777697534    1.47741565196774    1.61256514208707
H         5.02189772304040    4.33868560152791    5.34585346427568
H         3.94725011301898    5.87676328820666    6.94406075102345
H         2.06443338424523    7.29224817534437    6.22820404994881
H         1.24386621249757    7.18395346866878    3.89989388376859
H         2.32628141600607    5.65173414671364    2.28839356568400
H         6.80907080603797    3.48823305493201    2.01106409781616
H         6.58947899756139    4.36099091583238    3.54760915623237
H         5.83536774650538    6.39949201301428    2.21032660271462
H         7.51957898693280    5.95854262887816    1.86733832555043
H         8.09389432991156    7.09299841152091   -1.45485239613987
H         8.11933268492499    9.46856038337472   -2.12415703784674
H         6.21982077998950   10.93323988748581   -1.56738633917094
H         4.27845653922654   10.03685299395138   -0.33871024585635
H         4.24180465129272    7.64732282531992    0.32669032786143
H         6.14483968689160    4.67918722182487   -2.61213572235875
H         7.80971019689360    3.46493685623118   -3.98196222667130
H         9.91761166751262    2.70055163925760   -2.95143551180148
H        10.36902919990973    3.16100068947304   -0.57476337160469
H         8.74919764727545    4.40309670994902    0.78075769119392

