74
CSD_code = JIWQAH | q = 0 | S = 0 | Stoichiometry = C32H35Cl2N3ORu | MND = 6
Ru        2.07432912212200    2.00197573873947    1.73237854170476
Cl        0.51958244423209    1.92015224209311    3.43383032074106
Cl        0.35283060715404    2.63199503868940    0.29098521272788
O         2.40182220434999    3.97016546914903    1.98220771038116
N         1.85159738918509    0.10666239280054    1.44044609656584
N         3.34378056322814    1.31457083987540    3.05031631599380
N         3.22927598954087    2.37710236584002    0.21852732607649
C         2.42512748664847   -0.68856412246895    2.32918771559287
C         2.31348413755061   -2.09554663713780    2.39889996930427
C         2.98824849932144   -2.77712788789080    3.37204960190238
C         3.81656424308195   -2.10146959848864    4.29038922369426
C         3.96391398191911   -0.74258972499706    4.24981743672140
C         3.26238659672626    0.00426059437521    3.27687251792909
C         3.98599773921539    2.20388977680061    3.89855114819416
C         3.69063221802405    2.24877074869427    5.26296486450231
C         4.26947609818987    3.21847494103569    6.05875040175500
C         5.15345853754992    4.13719224508597    5.51638564804297
C         5.45303444942415    4.09275178156970    4.16339929016446
C         4.87153197441119    3.13762099115489    3.35407484314398
C         3.25500185530046    3.66293244727425   -0.14338258153012
C         2.74554379141996    4.53206605047423    0.89753272951371
C         2.74280893605224    5.94634928307181    0.67651184599182
C         3.25296889215474    6.39684688978257   -0.50963253193772
C         3.81433043720085    5.55931098197790   -1.50988925400978
C         3.82476566681837    4.20448977728592   -1.31351297504296
C         3.68225930370361    1.34936485629087   -0.60165787792793
C         3.17104983324763    1.17946179271500   -1.89031928535309
C         3.57136861200189    0.09668943623359   -2.64956074031742
C         4.48345274924134   -0.81684255689155   -2.14541644619678
C         4.98964290189640   -0.65291260473497   -0.86555773435106
C         4.59086494202942    0.41949401119984   -0.09184026701082
C         2.14151806289206    6.84277162121228    1.74329279687726
C         2.96656281803022    6.69927847843428    3.03073944933979
C         0.69458479978014    6.39776630613445    1.99919990771918
C         2.13129835587311    8.31693952573598    1.33063192674434
C         4.36839611838712    6.21134257476015   -2.76524401304854
C         5.48834483686460    7.18688122027149   -2.37549591062868
C         3.23582197591360    6.96984331016192   -3.47231474127367
C         4.94563713439231    5.19071977714043   -3.74995509840787
H         1.27350819471519   -0.35621519931172    0.73641453873654
H         1.68396957052439   -2.60684122673652    1.68540894907776
H         2.89730678094697   -3.85043823050323    3.44173543303754
H         4.34785388572135   -2.67548850475062    5.03435692681088
H         4.61739458028821   -0.23174990435996    4.94082507032071
H         2.96547265019781    1.55824211127890    5.66680926275073
H         4.02127185482955    3.26184652313903    7.10865763202577
H         5.60029883279827    4.89376607010048    6.14335591681740
H         6.13737336702634    4.81090882017906    3.73649511720898
H         5.09898109728110    3.09717305619955    2.29525391563839
H         3.23763628963657    7.45540337634352   -0.70546370720264
H         4.24352420628136    3.52527580254397   -2.03691368842807
H         2.42694942033416    1.87168702466902   -2.25486346481095
H         3.16326969727745   -0.03794875363755   -3.64007526470846
H         4.79313182167090   -1.65917497054451   -2.74506423470276
H         5.69523256410930   -1.36587589799481   -0.46578893389769
H         4.98158005856679    0.55487956955359    0.90851526117265
H         2.56252818075221    7.34950675655567    3.80315189547273
H         2.93781489676954    5.67616966978483    3.39418505591488
H         4.00385476146542    6.97693944003124    2.85024375809011
H         0.23785737927524    7.03085312352027    2.75649563888696
H         0.10918441388300    6.46857111158012    1.08455119942259
H         0.65934700009061    5.36895635479635    2.34896086232342
H         1.68041522844007    8.90679431058886    2.12540943495297
H         3.14116281624225    8.68888706115324    1.16957425162956
H         1.54362586405843    8.46673044105898    0.42777209086528
H         5.90532128602265    7.64837978034631   -3.26776344764940
H         5.12385148217638    7.97653585740463   -1.72489230225497
H         6.28461965211410    6.65702264325469   -1.85695241645588
H         3.60449894052385    7.41252839961686   -4.39497185697090
H         2.42367107120860    6.28857211333877   -3.71561479015416
H         2.83710552226441    7.76582290434004   -2.85022657156026
H         5.33124399267719    5.71051906165362   -4.62434942135233
H         5.76536276918775    4.63327598122100   -3.30258447254586
H         4.18078356556843    4.49420495012259   -4.08441102276673

