67
CSD_code = JIWWER | q = 1 | S = 0 | Stoichiometry = C33H26Cl2N4OsP(1+) | MND = 6
Os        6.78161396816418    3.42386808626098    0.54043638815480
Cl        7.61530253642190    4.89696247175912    2.18911197858932
Cl        5.94553217379318    1.99903726304963   -1.09683029835781
N         6.25583070080631    2.26700100711671    1.89805423579955
N         5.17171841256600    4.61717999114027    0.20646430241377
C         3.93443194114363    4.39958326917492    0.65440740869525
C         2.87702699359126    5.23766432629344    0.35593745540191
C         3.10314616996739    6.34851808819592   -0.44735300720280
C         4.37612563089958    6.56213617449403   -0.94077793688646
C         5.39789462215784    5.67525900501133   -0.60849710460066
N         7.51671553657069    4.70442472491083   -0.74519953901791
C         6.76986904144713    5.76681477261917   -1.10183396400282
C         7.31929694298485    6.80820359788092   -1.84233548713880
C         8.65640820232254    6.74176459410331   -2.20526466060613
C         9.42124251928546    5.65205889424867   -1.81701314223494
C         8.81945796325318    4.63973844803390   -1.07665732839282
N         8.64856929307100    2.66132264565701    0.20196288563108
C         9.45427197833843    3.42389183892685   -0.57543190440874
C        10.75389888242022    3.02566356415102   -0.88010210044857
C        11.22448082894610    1.81834474596758   -0.39966803316863
C        10.37079640097147    1.02421552029337    0.35519673641907
C         9.09450889063772    1.47897153001351    0.62715669398815
P         6.36613958451303    2.12093429977047    3.48249776700723
C         7.98825656154030    1.38342151306127    3.84222614233541
C         9.12450746520104    2.18444226212780    3.77912704988963
C        10.36615147936232    1.61528229644460    3.99824248754360
C        10.47362574999136    0.25793699928223    4.26212438002428
C         9.33921268097994   -0.53680284747959    4.30932788813956
C         8.09054014782802    0.02080055627952    4.09241654165648
C         5.08088269874057    0.95052175289228    3.99648293401504
C         4.42430958250322    0.19893816676060    3.03010142157388
C         3.45263411722972   -0.70696802449500    3.41785196048989
C         3.14428488463018   -0.85979774157002    4.76047280775588
C         3.80220819468633   -0.10660757378860    5.72187988792599
C         4.77166870764559    0.80424135200546    5.34363423355652
C         6.12456203952672    3.57416918606937    4.55526796890335
C         5.00786065225603    4.35668534323668    4.28177995131589
C         4.73302498765571    5.46196840362721    5.06273560479963
C         5.56792887925759    5.78104673472375    6.12274396652344
C         6.67014300286425    4.99105017520464    6.40393867617187
C         6.95464671502786    3.88388207305765    5.62319716024992
H         3.79204267980702    3.51026953806561    1.25672781733699
H         1.89445807905497    5.01866880758063    0.74076818493766
H         2.29894229715759    7.02281094108636   -0.69551263883080
H         4.58015028440893    7.39806324366435   -1.58914640349539
H         6.72048444835647    7.65840772472060   -2.12268964059524
H         9.10166828194242    7.53901004244494   -2.77843476988265
H        10.46471236828537    5.59697184875800   -2.07773720727434
H        11.37733517658392    3.65243959784783   -1.49596532525558
H        12.22823869748050    1.49366113903154   -0.62359440546121
H        10.68428237731850    0.06293900611379    0.72748351582052
H         8.39858546087570    0.87791767581369    1.19760110089975
H         9.02788864149678    3.23948492316621    3.56504482988178
H        11.25093836732162    2.23297931263935    3.96520367264484
H        11.44472339749112   -0.18158252041990    4.43202289193216
H         9.42466324866750   -1.59257541122974    4.51653245581276
H         7.20107367564408   -0.59225283460414    4.12674916415867
H         4.68350029009246    0.33665994932225    1.98897387911036
H         2.93677440060783   -1.29337197174325    2.67281626469401
H         2.38677063530862   -1.56737610163970    5.06099976130963
H         3.55822062932650   -0.22964902216334    6.76606379636759
H         5.28944114843213    1.40003886000086    6.08316222969509
H         4.36895646478922    4.09056162366685    3.44913939136500
H         3.87090711398872    6.07548499402744    4.84763044235843
H         5.35800513981186    6.64764317616110    6.73070406042847
H         7.31489540493146    5.23839014903775    7.23364326135940
H         7.81441352767493    3.26833582192709    5.84420126129323

