70
CSD_code = JIWYEU | q = 0 | S = 0 | Stoichiometry = C27H37N5Ti | MND = 5
Ti        8.43370180435762   -1.42485404000546    3.33219837845759
N         9.21905302598046   -2.33266436286998    1.88581028227259
C         9.88795431452854   -1.65036281982387    0.80484504569966
C         9.21567636754089   -3.76150980603344    1.68598971714455
N         6.70336118055625   -1.18510430294906    2.72946711718785
C         6.08101909424427   -1.60916891045425    1.50034573742028
C         5.74859759809811   -0.49254217432439    3.55811537768472
C         9.46837201163855   -0.44692251620047    6.02290622646700
C         9.70777832137516    0.15569353388912    7.41643460428200
C        10.69580329109042   -1.12768236709156    5.47051570246476
C        11.90631467125880   -1.19263356738568    6.16167753942495
C        12.98554690123864   -1.84205967606970    5.59071945312194
C        12.82725048081592   -2.41512855658295    4.33962332526957
C        11.59359285083715   -2.30259540866414    3.72257387856247
N        10.55387957190100   -1.67721093256731    4.26328419644931
C         8.34176411480119   -1.49578976897241    6.19025250668042
N         7.98957223144984   -2.24241900431806    5.01152307271655
C         7.02484148754521   -3.19337755091848    5.17064100829139
C         6.58384333507206   -3.91152491877752    4.03802273809173
C         5.61260738573351   -4.88142519384232    4.13105609121254
C         5.02445826101744   -5.21097601916160    5.35086408824229
C         3.97185290507686   -6.27715545385993    5.43144389012902
C         5.44959882662326   -4.51559673598388    6.47089265749567
C         6.41824835231934   -3.53167715921857    6.39600814771880
C         9.08340346803345    0.73478963833237    5.10000768923083
N         8.82472470262378    0.41275934031289    3.72096917458719
C         8.49039961047670    1.46414216498039    2.91667556559347
C         8.48079882038089    2.81439144009452    3.32104809774994
C         8.13924891003224    3.82549276277341    2.44365491744295
C         7.78569471139543    3.56617152249518    1.12812505711311
C         7.39424014985939    4.67332594310999    0.19420227331331
C         7.78398695678164    2.23611826552950    0.71802402793207
C         8.12871922590549    1.21532343595730    1.57560522686719
H        10.15402674232577   -0.63096075822818    1.10586801158599
H        10.82072927812288   -2.17027228341143    0.51421840040179
H         9.26760076846802   -1.59767052587529   -0.11040637664382
H         9.03648696191704   -4.27935344869587    2.63473703594796
H         8.44826251054286   -4.08627286261306    0.95723038293450
H        10.18527817648301   -4.11600500305536    1.28818502219802
H         6.80661541607689   -2.12488377243384    0.86783374620638
H         5.23601598776411   -2.29243888945596    1.69621587955890
H         5.67710050268340   -0.74718230995064    0.94065806512220
H         6.22283911121312   -0.14997460964705    4.48183406802943
H         5.33399146268684    0.38756425009613    3.03478288360483
H         4.90129795171106   -1.14966549675262    3.82463352714729
H         8.79247685776606    0.62614526249896    7.77047283536311
H         9.98644723291110   -0.61188738738805    8.13530271964043
H        10.48408841143593    0.91744095454954    7.38852152815600
H        12.01540585954252   -0.74420883986483    7.13459525578255
H        13.92903483536945   -1.89936282182367    6.11353409381922
H        13.63876232948108   -2.93458792871022    3.85472962667794
H        11.43211698882489   -2.73652203636368    2.74686802542666
H         7.45794957084442   -0.95924415206989    6.59033762438134
H         8.68558553555384   -2.18936901256140    6.98322943320082
H         7.01814879849931   -3.66002121886045    3.07719830651465
H         5.29706019354076   -5.40422626388699    3.23729619010473
H         3.61403386913324   -6.39132800823060    6.45200120773928
H         3.12362305901631   -6.02830879116830    4.79351483252378
H         4.36918391662407   -7.23532157360913    5.09572057284109
H         5.01163507025545   -4.74112434409432    7.43459123157232
H         6.69305412188764   -3.02682841505472    7.31020818956298
H         9.92048486250254    1.45838461611590    5.16631812646120
H         8.19774561227761    1.22201492176186    5.55508842118536
H         8.74183627962998    3.09398515672624    4.33088183003233
H         8.14700152491460    4.84797873049722    2.79825175432516
H         7.54880454947481    4.37810189889567   -0.84143328369580
H         6.33912899692022    4.92272248909577    0.32014853894431
H         7.97539312536579    5.57192312591667    0.39315754130648
H         7.50746925252681    1.99850942437265   -0.30118097030138
H         8.10507933512969    0.18682312184747    1.23583291001952

