83
CSD_code = JIWYOE | q = 0 | S = 0 | Stoichiometry = C34H43N5Ti | MND = 5
Ti        5.88139124233636    3.88715435305051   14.94826409902200
N         6.34646245848556    3.00703000606517   16.69253935225699
N         5.54721706375597    5.37803364982606   16.13572714827099
N         4.74691510270161    2.34548940679728   14.82007633140124
N         7.31829606802971    3.94025687940008   14.06239671133373
N         5.03953391705795    4.81740917353379   13.36126640052015
C         7.54610036806433    2.63852417473891   17.13726861444532
C         7.76219385053494    2.23592671535802   18.43975364365104
C         6.67760571297521    2.20302218922913   19.30877024730515
C         5.43391906309726    2.58948615989199   18.84514812943395
C         5.29536999940273    3.00944263830454   17.52430752976362
C         4.01519715107103    3.50777591177453   16.91696708754604
C         2.82656065504168    3.45799163553325   17.88345828236168
C         4.20614637756047    5.00905412900394   16.45817309338294
C         6.41285241732169    5.68599411188000   17.14218975405750
C         7.76744954677459    5.84868600016047   16.78169858652640
C         8.74038390816541    6.12238187911310   17.71566217435707
C         8.38441438165313    6.25043357556330   19.05899995242415
C         7.06393479404313    6.10887869586540   19.44802428623165
C         6.08875429041990    5.83483195352733   18.49978833892191
C        10.17870594698150    6.27122646342004   17.31075166926027
C         6.66980056840896    6.25192850048984   20.89055734974747
C         3.65114568272629    2.59391179805653   15.69636225121087
C         4.98769982015647    1.08479138222839   14.37579115605340
C         6.30082006858340    0.76940713763829   13.97620287449524
C         6.62429224128169   -0.47540076445949   13.47930707530128
C         5.63367708433573   -1.44955827076845   13.37561051032229
C         4.32983267432555   -1.17278677577338   13.76137293559901
C         4.01019366315755    0.08124563054479   14.25326716662618
C         8.02823226377106   -0.79205298775745   13.04963327580243
C         3.27507166917115   -2.23501597668519   13.63466520129119
C         8.37369429481118    4.04633181806413   13.13514956436568
C         8.67728869662030    5.52982297408685   12.81056484489974
C         8.02172351978085    3.33072704523080   11.80782254373440
C         9.64898506480824    3.40289429602839   13.72910191987238
C         5.14257082294132    6.14659423096958   13.21988588992365
C         4.85139758211700    6.80305972005762   12.03806817113160
C         4.42092465546047    6.06682520594049   10.94069317959797
C         4.29124158900665    4.69205249728034   11.09152110906728
C         4.60339166874694    4.11264860593384   12.30860617422399
H         8.34490976716616    2.68066732592951   16.40273372316876
H         8.74862952011988    1.95662629767688   18.77385775962477
H         6.80195571886416    1.88963681991036   20.33450451969327
H         4.58712714163694    2.57553219068013   19.51226310252005
H         1.93428316358074    3.82930583498591   17.38013667793017
H         3.00143286287906    4.08043749579204   18.75936931423361
H         2.62668671635232    2.43940947500122   18.21307624666023
H         3.79306110503072    5.64993925756847   17.25524323240177
H         3.57132991604635    5.16887272220513   15.56749923302100
H         8.00508167242359    5.71247058554204   15.73070709453684
H         9.14607112978274    6.45570184444806   19.79777478880108
H         5.06850568793008    5.72961997690755   18.84455078669571
H        10.80179265078447    5.55894032025336   17.85074728476571
H        10.29971468293955    6.10165526061911   16.24380946884884
H        10.53872613676264    7.27223862187916   17.54695481873259
H         5.95260390055607    5.48282869313790   21.17420433613747
H         7.53870321196965    6.17610425193480   21.53990503692443
H         6.20272589700019    7.22290626754349   21.05959117483395
H         3.26898496024485    1.64883033566118   16.12381013367299
H         2.80122288310923    3.07942293023376   15.17131041225012
H         7.04196921399785    1.55793127155422   14.09230709863014
H         5.88095633096886   -2.42845744026405   12.98998488102988
H         2.98112663708166    0.28805907098739   14.51815371698055
H         8.07193859149567   -0.91772096619466   11.96757540874874
H         8.36939962729084   -1.72038827938208   13.50553418453139
H         8.70887570428851    0.00778036870659   13.33070340875143
H         2.29930239594435   -1.85701478854414   13.93176217258326
H         3.52108531148127   -3.08987579185426   14.26452140752666
H         3.21200821411318   -2.58817036303753   12.60584828773987
H         9.47076679121316    5.60277102791390   12.06943497046894
H         8.98553567643621    6.05779001642571   13.71001028528110
H         7.78095964967163    6.00834441154262   12.41949494280399
H         8.87133404762347    3.35030009931239   11.12808324154904
H         7.17962377609087    3.83284858490062   11.33480383907462
H         7.74141345074996    2.29837374396312   12.00126834284890
H        10.48681732129825    3.50751723708620   13.04304470731579
H         9.89732816324879    3.88816635904894   14.67177503454031
H         9.47595706116701    2.34475943176414   13.91745436902009
H         5.49544507815092    6.68518569232639   14.09666663423191
H         4.96032244011117    7.87504539885921   11.97431020294664
H         4.19139997721767    6.54843303872432   10.00271293936842
H         3.95251019033545    4.07641241569059   10.27231877497323
H         4.52958767915390    3.03820718339680   12.45276737787844

