106
CSD_code = JIWZAR | q = 0 | S = 0 | Stoichiometry = C47H54N4Ti | MND = 5
C         1.13498042196434    2.83086739420017    3.51977781936539
H         0.33063836524255    2.13700604664065    3.27127755511613
C         0.83448713217436    4.15837555397909    3.36628517501563
C         1.77580169380328    5.21566966118798    3.72822763576045
C         3.09644867415428    4.97605382495171    3.83213034492228
H         3.70775452191680    5.80745015719850    4.21727691565628
C         2.20641115233983    0.89617026308464    4.39729319735910
C         3.52497350053789    0.50157658919885    5.07711424394460
H         4.35985510926462    0.65661958688824    4.39342724101705
H         3.49347774071272   -0.54990856319465    5.36102279120428
H         3.67906960752471    1.09923730270528    5.97644014696879
C         1.97532365720027   -0.03552799494066    3.19265999550629
H         1.01621856559047    0.16206165522168    2.71887568730912
H         1.98996416714793   -1.07610570063373    3.51005820632931
H         2.75890393705218    0.12445374620000    2.45132795755339
C         1.08486174329039    0.71706179835897    5.43812248011295
H         1.21000321369290    1.44870003333567    6.23468760053960
H         1.12998233159646   -0.28088881542530    5.86825790091770
H         0.10041826352376    0.85069540025579    4.99818259906210
C        -0.48220583017776    4.53981683462218    2.84216954478702
C        -0.60533162732439    5.62440081079997    1.97044855577575
H         0.27847702640983    6.17421420730521    1.68125705031407
C        -1.83224052861993    5.99953221494446    1.46301432639340
H        -1.89422237997067    6.84229994384291    0.78811980225764
C        -2.98874530900101    5.30844130560885    1.80106264509648
C        -2.87437033714581    4.22936357295178    2.66836804254994
H        -3.76233614013112    3.68098926892886    2.95312276998137
C        -1.64884451424897    3.85261492111773    3.18042462875938
H        -1.60034499817629    3.02606419132476    3.87540201870396
C        -4.32576852262165    5.73099331296263    1.26985885337082
H        -4.80798809941567    6.41467253066671    1.96993379775547
H        -4.97976596931438    4.87178274191847    1.13615740856772
H        -4.21924241022519    6.24502158422598    0.31716214585119
C         1.20542869172601    6.53110201834757    4.10551012263814
C         1.78864545842515    7.71605194419897    3.66800362629449
H         2.65211474305060    7.67709158625218    3.01595781375372
C         1.26862868643979    8.94275150651395    4.03720540808491
H         1.73228419340753    9.85030497354747    3.67409249830739
C         0.15656307937984    9.02486176059294    4.86252075557378
C        -0.41738082544815    7.84140032163247    5.31418844375216
H        -1.27994578459948    7.88633006804269    5.96490837298150
C         0.09493395755747    6.61554715387070    4.94266193116273
H        -0.36466344712645    5.70789116571381    5.30621621088322
C        -0.41737484498294   10.34890098927300    5.27047032983461
H        -0.30727459433288   10.49461208093851    6.34507277376591
H        -1.48034983075057   10.39189991843099    5.03679794560166
H         0.08528694879301   11.16637220780229    4.75901820689054
C         5.76264122303353    1.49559130814207    2.16641155935746
H         6.20194985941978    1.18692763131540    1.20694470755413
H         5.79571702871113    0.61923767881413    2.83580564740626
C         6.74839720494675    2.57077459347992    2.75835779844526
C         6.57817841648754    2.75764857545486    4.28534701492566
H         6.89257656228949    1.80577745725345    4.75775879546730
H         7.31288685834378    3.52846410185436    4.58988164468551
C         8.17760113555171    2.05810442965476    2.54016999086806
H         8.38014880382497    1.88439275175622    1.48580414301891
H         8.31022307713585    1.11266477797929    3.06320968031689
H         8.90882713544046    2.76403937134644    2.92951966401740
C         3.88722335539192    2.08309013461609    0.74940135954172
C         4.29068684350313    1.34782123695033   -0.38062904067168
H         5.08927871316195    0.62161391517355   -0.30811493925173
C         3.65535927509382    1.49584483371494   -1.59939808907923
C         2.59310282715336    2.38307819759659   -1.72162199600930
H         2.10012589202716    2.49444671360962   -2.67643372884418
C         2.15468103218525    3.11212901952272   -0.62347592806763
C         2.79944423818678    2.96314684028675    0.59067743704500
H         2.46289900391175    3.52726238914363    1.46154605521678
C         4.09181203386885    0.69457825841252   -2.79171166484083
H         3.28742043983429    0.03603773403289   -3.11762204675109
H         4.96297239990366    0.08577564652012   -2.56080182873506
H         4.33811624481354    1.35392889517004   -3.62297003446528
C         1.00961160288298    4.07316626602252   -0.74750641595998
H         0.47570591467806    3.92355845520884   -1.68283869231003
H         1.37592029690560    5.09998676018536   -0.72459659718219
H         0.31312381863334    3.95235003640833    0.08011835984737
C         5.11305774367875    3.29234528684225    6.09868495729698
C         6.15222042173469    3.15579329766224    7.03318296359399
H         7.15739301462347    2.92014497821255    6.71598936546212
C         5.93383720597257    3.32228095955919    8.39430797721426
C         4.66583831033696    3.62678636662294    8.85745203471084
H         4.49192768783082    3.75617023323748    9.91585819377728
C         3.60971303345388    3.76945599141864    7.95927840828167
C         3.83424688594135    3.60140299595668    6.60942298597978
H         3.01207395506463    3.71128057999944    5.90795097244998
C         7.08614596450989    3.18578059845238    9.34741231815557
H         7.71748976217705    2.34198771954222    9.07452188422980
H         6.73302618841763    3.04473109830078   10.36590210756562
H         7.70146508401045    4.08575669080492    9.32211933855790
C         2.23295564576204    4.09176352371420    8.46299647604275
H         1.55718325783501    4.29080375239383    7.63466754715809
H         2.25906318328401    4.96672524004280    9.11038784095612
H         1.83775131121786    3.25939275785333    9.04584170224678
C         6.45713257935989    3.84027180486672    2.00568372452552
C         7.33051116791515    4.41254758387335    1.08397091410552
H         8.33477283880990    4.04026776194355    0.96857406486647
C         6.90381947545732    5.47536586551744    0.30742973076238
H         7.57079640571804    5.92965595282058   -0.40979384787142
C         5.60245854141350    5.93125930120545    0.45846148977772
H         5.22037092238791    6.73829780465352   -0.14616974495996
C         4.80749448587818    5.33560757112027    1.41895397406636
H         3.79481343759099    5.68301401952492    1.60053135066976
N         2.29237261343894    2.29252004245539    3.96425816920780
N         4.42654792253727    1.97729435375626    1.99791950464392
N         5.26386938493467    3.12152741517910    4.74759474527818
N         5.22262212633717    4.32620971582705    2.18432526085692
Ti        3.90705761474054    3.15952765143074    3.45967921150762

