82
CSD_code = JIWZUL | q = 0 | S = 0 | Stoichiometry = C29H46IrN2P3Si | MND = 6
Ir       11.81004423218424    5.26695942148769    3.66800277191946
P        10.49141011502877    3.90096244990294    5.13704887238877
P        12.41648011087264    6.90741010573014    5.47685658006737
P         9.91361244277817    6.41147855849250    2.86817394261703
Si       11.91975466717955    3.72093489910033    1.81189508328313
N         9.10462832464659    2.55678698189456    0.98979393662234
N        12.57521856054603    1.53922292993453   -0.16575052790358
C         7.96356666908022    2.21840536977828    0.45823741621468
C         7.46981037579774    0.90408033468038    0.42338322974853
C         8.21629652487180   -0.07852142244325    1.01372691297770
C         9.45277705250699    0.24986927583986    1.60536414629785
C        10.25960272032531   -0.70144172609502    2.25644857757817
C        11.44160933771989   -0.31206030758868    2.82515191562609
C        11.87141647157603    1.01652602140023    2.72444585881640
C        11.14115123724982    1.98061524568986    2.07065506707030
C         9.88533887430443    1.60714596387240    1.54038522895522
C        12.59613680823187    0.54875914016534   -1.00828269464494
C        13.77035961421529   -0.10504987368616   -1.42065429984236
C        14.96242502526712    0.33140646213710   -0.91145231897563
C        14.97550193892533    1.39799019539748    0.01039769456775
C        16.15926484481463    1.89092380558370    0.59259753725796
C        16.09015779748850    2.90421818762226    1.50629843202302
C        14.85095975461977    3.45581257807605    1.86825144029878
C        13.66791729906655    3.03292617162055    1.32080122014544
C        13.72825301257417    1.98343696584375    0.36973386561899
C        11.32053325289735    4.32749567417514    0.07819713710833
C        13.04337720437330    6.53959308793405    2.44662141206205
C         9.37897616779139    2.51165768283515    4.65577732529550
C        11.50495832331930    2.96973470160374    6.35938960227991
C         9.30174826665899    4.72852595220410    6.28751309097979
C        12.05060373065953    6.82252722997567    7.29370494099201
C        14.24999593098385    6.87100952292640    5.61301093379840
C        12.19162515504004    8.73722469763569    5.31681462594719
C         8.45302652877256    5.39427498353161    2.41718557703604
C        10.01912515368659    7.48340693189423    1.37829384517811
C         9.06917225015289    7.64514290147815    3.95861357048495
H        13.06936198786071    4.52486147367474    4.16105765918635
H         7.38060913235769    3.02763777151198    0.03155256535582
H         6.52063773144174    0.69150873768861   -0.04568617607865
H         7.87297927426729   -1.10495243474487    1.04042224776428
H         9.92943499530133   -1.73082547667518    2.29753261827701
H        12.06108147666523   -1.03551899704463    3.33825635603553
H        12.82422045627710    1.29025869505952    3.15416665492710
H        11.63229198404025    0.23737075654465   -1.39557715370021
H        13.71959922137835   -0.92394297821011   -2.12277906324826
H        15.89864184156132   -0.13046714371694   -1.19859510234119
H        17.10617500172321    1.44925120461124    0.31170815335506
H        16.99358233261944    3.28293916890867    1.96493912520399
H        14.82613453530351    4.23146848573157    2.61595479653488
H        10.30858329357033    4.70973349623709    0.10117418207048
H        11.34478597942015    3.49420624154001   -0.61301428453720
H        11.97813227034189    5.10206695704912   -0.30379679829705
H         8.76345445264963    2.21354056917596    5.50465025009617
H         8.73993505761418    2.80394238573979    3.82710866707138
H         9.98503499138042    1.67002136446216    4.33418745677810
H        10.87839073221278    2.41597419844237    7.05857949003643
H        12.13318250770168    2.27827457093696    5.80116656905306
H        12.15360249915216    3.65210086236360    6.90361361778523
H         9.00860543307541    4.04918713994686    7.08776070279638
H         8.41422281465144    5.01929637476809    5.72762411060733
H         9.74774494386721    5.61816834209555    6.72104705670762
H        12.15808222583909    5.80032994882905    7.64923818528284
H        11.03401445853156    7.15900909758142    7.49138957534489
H        12.73949451921121    7.46333968715266    7.84298780071262
H        14.55539635372640    5.87202529615162    5.91643706434803
H        14.60683872294412    7.60376836382452    6.33687526634462
H        14.67968537927270    7.07533795821852    4.63676438443734
H        11.17633507990727    9.00777333338637    5.59934550868957
H        12.36492196120504    9.04805821766165    4.28946494620927
H        12.89088551491938    9.25988574245761    5.96834910458816
H         7.98819647139099    5.01657633842562    3.32705436082289
H         8.77911870586697    4.54429799100676    1.81718479812125
H         7.72268602406674    5.98647791314131    1.86530174925838
H         9.05377067223980    7.94703091790219    1.17310952127261
H        10.32881270870119    6.88723527346375    0.52547373321832
H        10.76347813830786    8.25943325341606    1.54593340410432
H         8.98712828147966    7.26626846008041    4.97479516363053
H         9.65586893694764    8.56121257315798    3.97399636684515
H         8.07245878015247    7.86998321588370    3.57808562247552
H        12.75226251224910    6.53415304956369    1.39676421118955
H        14.10809189286352    6.30573653972037    2.45809239132199
H        12.95191193757493    7.57867396226162    2.78077119044937

