89
CSD_code = JIXCID | q = 0 | S = 0 | Stoichiometry = C52H32N4Ni | MND = 4
Ni        3.26269526903200   16.15033212869077    9.82341399345449
N         2.21560662002071   16.15040672754930   11.48355159179528
N         3.26257030773129   18.04938778988109    9.82335945041710
N         3.26258555129841   14.25118176717168    9.82329649372218
C         1.44963823210938   15.11934502509675   11.95340148589559
C         0.80115892403122   15.50772002592936   13.18808889131411
C         1.29140951436183   16.79157149341520   13.49698265794853
C         2.12305734527762   17.18115596174382   12.37787005169152
C         2.58742046270832   18.46914963124379   12.15010029925034
C         3.02668124328196   18.86956915470232   10.88815383659189
C         3.14496459874667   20.23946183122293   10.49016500013659
H         3.02716498344854   21.08255268337586   11.14200064867502
C         2.71126556167260   12.06113123618222   10.21670557106195
H         2.17359904521675   11.21809795139763   10.60371716887477
C         2.40317673032399   13.43117406838108   10.49486790284046
C         1.45440965977043   13.83147309797698   11.43566986252653
C        -0.09205803128750   14.87046641228606   14.04269104325152
H        -0.49557293200628   13.89816112141329   13.81818502706689
C        -0.47012222573736   15.51819927407628   15.20134368777658
H        -1.16485647515691   15.03856258988479   15.87516981668908
C         0.03132314707484   16.77753563544841   15.51721899307734
H        -0.27329041966975   17.25542214277736   16.43676917621180
C         0.90930573654204   17.42729756352376   14.67345672783269
H         1.28584158771795   18.39982974329776   14.93997683010212
C         2.53588292630040   19.50459486293445   13.20607844543292
C         3.54006976355589   19.54946798287770   14.16699674306481
H         4.32694188639828   18.80974437805905   14.14483013503640
C         3.52792198882205   20.53003428724173   15.14298548321573
H         4.31131404656744   20.55756772940123   15.88619608217568
C         2.51524244931011   21.47437896081017   15.16721888608437
H         2.50606729821247   22.23874981351069   15.93014844824198
C         1.51468725824750   21.43720691894113   14.20993982426329
H         0.72387988186511   22.17300406424485   14.22562572134302
C         1.52536486675277   20.46005953780940   13.23075613684983
H         0.74414321963913   20.42452134237881   12.48534874968041
C         0.52572913496427   12.79554287486789   11.93989165203025
C        -0.77524502348443   12.74792460081333   11.45121829759060
H        -1.09722971678443   13.48557055128023   10.73077246983889
C        -1.64831649031110   11.76720200157908   11.88740708017386
H        -2.65757444430609   11.73752053334025   11.50355015095181
C        -1.23024281803067   10.82562162262247   12.81285830501457
H        -1.91302740713865   10.06148041204279   13.15387080157584
C         0.06614414072536   10.86521773735139   13.29941718083245
H         0.39568111378100   10.13147965488938   14.02054626473746
C         0.94272151362518   11.84238299776575   12.86312863016717
H         1.95309455149334   11.88008438303190   13.24379905497263
N         4.30941491147876   16.15011975079878    8.16299672853878
C         5.07533163307565   15.11907114984220    7.69303197022537
C         5.72378584773294   15.50752511528622    6.45836607009930
C         5.23350111557351   16.79138213900949    6.14954659403993
C         4.40184953680158   17.18088670914740    7.26870261042002
C         3.93756108704701   18.46888809815864    7.49652374322106
C         3.49840648452013   18.86945450328908    8.75846721847635
C         3.38022563619813   20.23939442523117    9.15633315338221
H         3.49805544202016   21.08243281071688    8.50443691781517
C         3.81373283216138   12.06106682545893    9.43002093162156
H         4.35136912821702   11.21798825825942    9.04306230306027
C         4.12188173932118   13.43106557388824    9.15170653542906
C         5.07060293620736   13.83119875788713    8.21079398434872
C         6.61709969896489   14.87038895132029    5.60377440232695
H         7.02062177840615   13.89806514026044    5.82820425746065
C         6.99525075020121   15.51826148153956    4.44522879054632
H         7.69010498458603   15.03876644320742    3.77142528957656
C         6.49375835165217   16.77759551016850    4.12941765878364
H         6.79843259283172   17.25560956234158    3.20995415592741
C         5.61564696407874   17.42722161887944    4.97314965478003
H         5.23903342494408   18.39972924459319    4.70666483338622
C         3.98910376884391   19.50434118961828    6.44056667240672
C         2.98492445021017   19.54929090243044    5.47965805117217
H         2.19805368071732   18.80956357243413    5.50174537970791
C         2.99708622470100   20.52995652447609    4.50376633702026
H         2.21369049001301   20.55755854402535    3.76056454161631
C         4.00976766829305   21.47429762291653    4.47963820950720
H         4.01894987638785   22.23875484158559    3.71679822492878
C         5.01032727900506   21.43703271546048    5.43691331155006
H         5.80113080759719   22.17283380434088    5.42131698800754
C         4.99963865103880   20.45979339265858    6.41599550157124
H         5.78084703606322   20.42415310589757    7.16141074098241
C         5.99930746402233   12.79527541928457    7.70658178342026
C         7.30029422601374   12.74778378570287    8.19526740855864
H         7.62217986719369   13.48546440031437    8.91572217931987
C         8.17348818753051   11.76717211465271    7.75908869567407
H         9.18274803614104   11.73759591241037    8.14295197137498
C         7.75553885413937   10.82554886715271    6.83361911176240
H         8.43842414697071   10.06149060277286    6.49261605957114
C         6.45915469874829   10.86500579598399    6.34705170093378
H         6.12972109737962   10.13123547072771    5.62590656553133
C         5.58244961741031   11.84206838443258    6.78333761061837
H         4.57208241884798   11.87962865697678    6.40263439981899

