72
CSD_code = JIXGIG | q = 0 | S = 0 | Stoichiometry = C27H42O2Ti | MND = 12
Ti        2.33474629857914    3.25525571512037    8.19969987122998
O         3.64523558184497    2.39193530563050    7.48161495981598
O         2.72612376993510    3.75488055121637   10.98758112780448
C         4.95207534089040    2.07870774563908    7.77079358975189
C         5.03439504770979    1.53879503558195    9.21179182685724
C         4.63164983501031    2.58979683863283   10.23738286050568
C         3.25363525047173    3.22739401665137   10.02026421557989
C         5.54130608270156    1.03765659564250    6.77372655515951
C         5.09951597880550    1.33841611224223    5.34229375572604
C         7.06590400384515    0.99649091456856    6.84160847605828
C         1.51403048744341    0.95080065412800    8.25195471296953
C         0.82152418108904    1.66318924714028    7.25601855780660
C         0.01590774485732    2.66321205686483    7.89379438886736
C         0.31015649938759    2.63193234406595    9.26967880650822
C         1.27263636038613    1.59035031781791    9.50039974380245
C         2.21848376722926   -0.34928629136036    8.00694074774705
C         0.70631776167722    1.22998821226281    5.82393391734656
C        -1.24323454554453    3.18480165788313    7.26076348212737
C        -0.38991651683578    3.36362009381971   10.37690145951462
C         1.52955560848012    0.98240782547373   10.85130224998495
C         1.17979592972732    5.49536580010079    7.74538710047983
C         1.95988602617569    4.98218867978958    6.65999532714695
C         3.32412724171359    5.00455256953566    7.05364283918903
C         3.37595131138480    5.37335125847969    8.42705398652174
C         2.03962978432274    5.70505546696278    8.83036933254665
C        -0.17963477252794    6.12616084261195    7.63678139744377
C         1.53184275828387    4.82932303441546    5.22791097195887
C         4.46724965543322    4.95126066265327    6.08220056723301
C         4.59865281672007    5.84545473289575    9.16301489669368
C         1.69622501670214    6.41024168111415   10.10640759318272
H         5.57396778930588    2.99500906623575    7.70514179607817
H         4.36427162041496    0.68057344447616    9.28493419315946
H         6.05205619314170    1.20504704088553    9.42218973793660
H         4.64933498765477    2.15867184730745   11.24475613178081
H         5.35903716393473    3.40856094314613   10.22502983531846
H         5.15158905924571    0.05270366861270    7.05460123199002
H         4.02856929955043    1.53675914054218    5.31972730640419
H         5.62734148752680    2.20925713686201    4.95850383331675
H         5.31574997830589    0.49327588620763    4.69192982096715
H         7.44873606310997    0.28473321995631    6.11341375735771
H         7.48255434603345    1.97558586150702    6.61322003857677
H         7.41723998450878    0.69402954853899    7.82434518159063
H         1.50082773406651   -1.08016482325915    7.62553841656473
H         3.00459051585225   -0.23794615718595    7.26020259780444
H         2.64833220195113   -0.75119515352882    8.92191435098869
H         0.32348180529612    2.03082504065835    5.19465860905876
H         1.67411935571364    0.91098255365587    5.43556285761034
H         0.02025765678821    0.38162912838711    5.74150448187616
H        -1.07235953611261    3.64367619770366    6.28928550718258
H        -1.91771061514508    2.33779981155279    7.10204420788383
H        -1.75640931308973    3.89507418915627    7.90147536437563
H        -1.01980334993445    2.67097935778836   10.94141153188771
H         0.33390928417980    3.79811350526552   11.06673308308909
H        -1.02497626311173    4.15896832258844    9.99249273314487
H         2.45914612042889    0.41540773081770   10.87082271698362
H         1.57554691436325    1.74620341994241   11.62474506075974
H         0.71176719683185    0.29940614710724   11.10004066830267
H        -0.05334498232466    7.21249575892030    7.63419344652924
H        -0.68281005018600    5.85448884883606    6.71394930769575
H        -0.82578699029883    5.87918819638406    8.47680637143015
H         0.45387708340491    4.71419252574539    5.13457447746977
H         1.81945729016321    5.71742891624694    4.65689911255323
H         2.01637308319342    3.96723528051223    4.76656973603012
H         4.41962327676189    4.06261336593401    5.45518429203551
H         4.41687621124021    5.82687664800295    5.42803136023866
H         5.42811343042852    4.97290555170450    6.59206553677442
H         4.75598468145626    6.90820506698035    8.95540913285487
H         5.49342049860442    5.30917313300824    8.84889228018881
H         4.47645120291995    5.73327638947170   10.23901171695153
H         2.09914281046280    5.87812933998083   10.96679477124863
H         2.12642875882674    7.41484450550311   10.10068593770922
H         0.61965170863485    6.49998072026141   10.22719815074173

