70
CSD_code = JIXGOM | q = 0 | S = 0 | Stoichiometry = C26H42OTi | MND = 12
Ti        0.60281912031943    3.23873829188147    5.55620301015398
O         1.24878825475154    2.42387161123748    6.93880847680462
C         2.61253437160449    2.23744897438745    7.11060254034851
C         3.20273378666465    2.01349216169448    5.70666998824752
C         2.56598215258961    3.05863781333518    4.78331839411172
C         2.90434886340173    1.07406138982534    8.08634154142641
C         4.39917029115813    0.93949859287001    8.36295505961511
C         2.14253153025835    1.28539419389679    9.39313880338423
C         0.82257105804918    5.09968335507270    7.47239538739626
C         1.83601199016116    5.49079140656192    6.59017973778858
C         1.25714724022095    5.63578584545024    5.29542966751579
C        -0.13948531807848    5.39949025099413    5.39206770618149
C        -0.39743880772731    4.99309966321081    6.74311143206397
C         0.91756483098696    4.86804565711021    8.94980094891300
C         3.24709943661939    5.86646762839959    6.93746345505296
C         1.91515409683654    6.27665308171029    4.10552779396126
C        -1.11628406201247    6.04240768411342    4.44419124011608
C        -1.72977496882797    4.92469618319142    7.43620196565435
C        -0.66109601280474    2.67764095155850    3.45351124586825
C         0.23002670637142    1.64017533255047    3.86054699266052
C        -0.23784689672168    1.13554272020099    5.10833030212392
C        -1.36780437687256    1.90293024519161    5.48822132561989
C        -1.66746689010156    2.81179374144211    4.43233883128058
C        -0.61690480980938    3.30535298458250    2.08756793567238
C         1.13260408666706    0.89995239249099    2.91178421765858
C         0.18034214810331   -0.13383859697289    5.78927699691874
C        -2.23806046179037    1.56351701889206    6.66480225753601
C        -3.02339752273113    3.42402939474717    4.21817231473275
H         3.04211333301374    3.16284905666231    7.54202154411499
H         4.29766043477287    2.08756317472817    5.72467581158538
H         2.93640904175680    1.00083131688024    5.38728720253254
H         3.14847145135278    3.97831922150907    4.89095929276164
H         2.68109720774650    2.74900569049313    3.73829976237545
H         2.54439274685020    0.14961507006466    7.62062101835383
H         4.94495040552999    0.67932513468368    7.46024459794578
H         4.79817066339414    1.87432966916557    8.75162288776630
H         4.57236321711910    0.15966648191102    9.10175488358946
H         2.25189662141253    0.42208486644216   10.04655808398612
H         1.08532963178834    1.43468708980862    9.18155093299406
H         2.52037892627865    2.16434618059729    9.91146707832931
H         0.30698142748530    5.59769569224552    9.48702521112293
H         0.55498701050154    3.87116652700857    9.20348624975922
H         1.94232183863638    4.95867093132992    9.30232769264800
H         3.98003262142735    5.30117787968534    6.35958796629415
H         3.40935401427410    6.92662686878259    6.73049849822618
H         3.44740538376314    5.69736906555046    7.99288094073455
H         1.61638651036969    7.32706248284175    4.03714608923378
H         2.99959145537238    6.24432948754405    4.18503882473529
H         1.62140918822413    5.78606654504735    3.17603238521537
H        -0.94540328073897    7.12369152654300    4.45463202612658
H        -2.14355438919367    5.87429883754118    4.75167220327519
H        -0.98890696713238    5.70635277997266    3.41653882344662
H        -1.88907942540314    5.84269867953158    8.01030679707451
H        -2.55186467966740    4.83241022797386    6.73123670920384
H        -1.76924230643149    4.08903986440684    8.13591309689079
H        -0.73170250245145    2.53619103972843    1.32023215815832
H        -1.42031972326930    4.02583486550366    1.95218444749527
H         0.33596922638175    3.81115528849344    1.91142840678660
H         0.55249922883795    0.12049571006608    2.40854455572620
H         1.53560742386752    1.55922088283228    2.14522425174360
H         1.96145202740318    0.41538920511193    3.42397856093590
H        -0.58774227116305   -0.89785227467191    5.63883352823730
H         1.11572466974587   -0.51352743875296    5.38364250178452
H         0.29673293534453    0.02131270385490    6.86202666241430
H        -2.69587316747496    0.58099937980621    6.51930308667457
H        -1.64729978559409    1.52169867576350    7.58276079828775
H        -3.03771531457888    2.28894151192532    6.79325303437712
H        -3.71484976146938    2.62992024497826    3.92122233716909
H        -3.43037785750218    3.88125697988883    5.11784421797218
H        -3.01682704786473    4.16562290689229    3.42417527310331

