65
CSD_code = JIXHIK | q = 0 | S = 0 | Stoichiometry = C29H27Br4IrN4 | MND = 8
Ir       14.06604792940677   26.04188644288506    0.86221663895407
Br       13.03254391974710   28.22605476153806    1.37416188874417
Br        8.59956158984918   24.70814445780862    2.98672549937545
Br       11.66041438006536   18.05725523274308    1.24810149852341
Br       15.14387274553585   25.74836903311853    3.05416561943855
C        12.79846724244751   23.14063071627832    0.01417269477416
H        13.72598996207877   23.11330210881135    0.60554856198691
N        11.79806622504137   21.28495517438614   -1.19637184591704
N        11.88509309286063   23.96017013197708    0.80715573063614
C        14.08172501723307   24.92556503125916   -1.07621828269769
N        12.31475181971303   21.79908264447281   -0.07257647315853
C        13.94905403537461   22.91173302480586   -2.28769148751475
C        12.89632923467331   21.15917200879763    2.28743359944549
H        13.93282651950509   21.49715222234382    2.25737760574218
H        12.84979136080496   20.25263164814292    2.88542515943385
H        12.30770494084124   21.93123389501159    2.78350822619710
C        15.99835511283446   25.94815331036998   -0.30456122130514
H        16.99069818555439   26.09990604649663    0.08700327684590
C        10.26721532958397   24.57494449867960    2.13402879884829
N        12.38038195957289   24.95265047378284    1.59655218201068
C        11.86410589845044   19.72018962739224    0.38162974616655
C        13.99842574121630   26.29994043442624   -1.38642237079011
H        13.24559438073906   26.78155569301577   -1.98569790730990
C        14.64500759594802   21.78856380557747   -1.86246783663825
H        14.57581713767985   21.43288415281087   -0.84595666818273
C        15.45304257028535   21.08708480223739   -2.74226546378301
H        15.97547393666000   20.20884882390012   -2.39343392548564
C        15.32617615426995   24.70554859481063   -0.40315889126560
H        15.76199897979041   23.74927175880707   -0.16526701796921
C        15.17097407025051   26.93490248626228   -0.88152005150494
H        15.42654178474825   27.97242995048516   -1.02413798011634
C        13.11388759400237   23.79758191086049   -1.36878948355037
C        11.10308343991310   25.34331913463748   -1.52614005802305
H        11.50102240107430   25.96372144024918   -0.73777643527242
C        12.37718880547754   20.87770314684577    0.92884446552367
C        10.58159799260770   23.72352707249286    1.09238236452370
C        14.13190854231133   23.34834257365536   -3.59795069622462
H        13.63216013090617   24.24561557177113   -3.93345177529651
C        11.79448803966482   24.23037222724816   -1.99681240292042
C        11.51691401769241   20.02443824690628   -0.95356475754924
C        11.41387178660550   25.32338707893654    2.43870483366216
C        14.94050492445698   22.65034802374805   -4.47376521901568
H        15.06059456252303   23.00367090428865   -5.48678953894321
C         9.87286470117490   25.69366946463913   -2.05607754100798
H         9.36276863087296   26.56437042253444   -1.67291755990174
C        10.92838718492285   19.11687052010663   -1.96550232644717
H        10.75794163307292   19.66190997196677   -2.88867732705517
H         9.98504013819473   18.71052123088818   -1.60293478439730
H        11.60189617572599   18.28248013548247   -2.15714955448281
C        15.59891716100539   21.50813933187325   -4.05070004235895
H        16.22997603527763   20.95836091667118   -4.73203938873425
C        11.20568626999169   23.46553855901535   -2.99914799107156
H        11.70272223510036   22.57874960031549   -3.35595042878044
C        11.53026648692910   26.29681802769039    3.54353000179668
H        12.56865169315147   26.45858096370885    3.81615628967189
H        10.97929593830914   25.92248916256085    4.40476987150564
H        11.09935963805681   27.25479918963098    3.25491621654432
C         9.67237969617108   22.77671630121947    0.40818000977654
H         9.90321371913561   22.69332301665651   -0.65085179395697
H         8.65143758531333   23.13579502230156    0.52370627954393
H         9.72593652008472   21.78437617475603    0.85809952591604
C         9.97697559444731   23.81705397836158   -3.52808440066551
H         9.54186504682941   23.20909750859935   -4.30708579750116
C         9.30511219768801   24.93412021056226   -3.06206584756526
H         8.34633462853738   25.20737996539005   -3.47552401123171

