92
CSD_code = JIXJAB | q = -1 | S = 0 | Stoichiometry = C36H51ClN3W(1-) | MND = 4
W         1.63737687763908    3.35630856872370    2.80135068570933
Cl        1.85143332045584    1.04000503686108    2.55909869126347
N        -0.02127422227420    3.62767020566489    3.48485166284070
N         2.96469353681488    3.84902751212960    3.93712161268508
N         1.83722076384196    4.04050345634527    1.13288716061101
C        -1.67451080128226    5.20529570676796    4.23005264654815
C        -2.79731813861005    5.44432348240310    4.99398086435571
C        -3.38407306877329    4.43748039077957    5.74506966282572
C        -2.84433007590500    3.16087015203822    5.72474140500660
C        -1.72700450422692    2.86987469089719    4.97002653771103
C        -1.10778412681801    3.90034757914021    4.20827932494067
C        -1.00342085892462    6.25938343803069    3.38203343849076
C        -1.42089169246739    6.08456106448648    1.91669698230022
C        -1.25822693415309    7.69193681583238    3.84317406389064
C        -1.09958230543297    1.49446868314541    4.90382882749528
C        -2.03489943572176    0.36265038678747    5.32352643059148
C         0.18415689511628    1.45775838143177    5.74512391833524
C         4.05452789287414    5.64814348568309    5.09985897518214
C         5.20491943527245    6.12865522825485    5.68904658321902
C         6.36527457260583    5.37066149213172    5.72493685536922
C         6.37489639780562    4.10113765924731    5.16855260362607
C         5.24722044860892    3.57292272449514    4.57511478851257
C         4.05539506656615    4.34864460708046    4.51998243209524
C         2.76042596054762    6.42431577874531    5.04087941043241
C         1.80024721848179    5.91124693799573    6.12111364204929
C         2.92933766215445    7.93714733828433    5.15146304012620
C         5.19880664099247    2.19267563929117    3.95656931531777
C         6.29421586301163    1.25051727835191    4.45108681959822
C         5.24488595940951    2.29714257097642    2.42550770668431
C         1.91244166640908    6.00454844895704   -0.25004913281341
C         1.76545957068602    6.55215274679306   -1.50701102730453
C         1.41529050116606    5.76899983699512   -2.59620468330114
C         1.21605768261935    4.40745234387449   -2.42883167888492
C         1.35976200653044    3.81125377915459   -1.19321801595238
C         1.70598767059506    4.60875528136746   -0.06658267420650
C         1.16181492085362    2.33034750601069   -0.95258540022715
C        -0.18532396373092    2.08161461069336   -0.25932073135892
C         1.26857566144439    1.47522484729949   -2.21323887698625
C         2.30229054661392    6.80627067335660    0.96900796221101
C         3.79269152953823    6.60161751737593    1.26707680083308
C         1.97688075984490    8.29433843859490    0.87214774947143
H        -3.23622053060413    6.43229879633505    5.01307926680595
H        -4.26194905533373    4.64593160529666    6.34192311808471
H        -3.31587162267825    2.38717870848367    6.31457111450439
H         0.08076173686093    6.05763809490751    3.43635884074953
H        -0.95738801130056    6.84451376589483    1.29099058035748
H        -2.50335416295933    6.15650767777795    1.81734916572971
H        -1.09441419390669    5.10762749448058    1.56006466261084
H        -1.05156792667195    7.79876425686808    4.90633759515661
H        -2.29058283203364    7.98403851491692    3.65808594627385
H        -0.61184614628876    8.37487537078217    3.29420657482104
H        -0.80904528763425    1.32321552388220    3.85389394843252
H        -1.57296274521394   -0.59807889892627    5.10079421049490
H        -2.97904312279356    0.42370091999547    4.78569046669648
H        -2.23687270832303    0.39979382524240    6.39264499828008
H         0.63154903958154    0.46505970065867    5.71063415535336
H        -0.03275700813237    1.71373388079222    6.78165216981150
H         0.91257076272450    2.17875275129628    5.34978398878296
H         5.21159702324695    7.11342964593507    6.13546684980246
H         7.25914286296183    5.76711913332214    6.18776296371949
H         7.28819748643659    3.52371812711591    5.20555395547307
H         2.30311051564057    6.18962381163264    4.06340763656704
H         1.57617517796768    4.86038571237264    5.93796811939902
H         0.86380753768034    6.46498281255204    6.09832911339621
H         2.24792103604771    6.01319766489613    7.10903280034021
H         3.67470362601737    8.29627975630197    4.44445774015872
H         3.23584685633461    8.22367795946981    6.15612647096002
H         1.98211075780906    8.42871784465222    4.93564694470133
H         4.22445871913402    1.75268923369716    4.22663155782926
H         6.10113286926369    0.24076629624467    4.09167590146279
H         6.32227943814055    1.22966829515496    5.53882232594939
H         7.27031515224407    1.55917956695732    4.08067082253757
H         5.22383633245764    1.30452936112184    1.97693602768932
H         6.15044548049384    2.81190494179612    2.10619833642237
H         4.37401271713002    2.85918476557968    2.06122976660394
H         1.92602588649798    7.61098698380893   -1.65617136937587
H         1.30047110403118    6.21796116255581   -3.57378489363707
H         0.94357829109301    3.81190809325762   -3.28903949593035
H         1.95377316775294    2.00870989512199   -0.25598274858612
H        -0.33676703801869    1.01500878864545   -0.09702406255262
H        -1.00310491341081    2.46790865951561   -0.86671239902254
H        -0.20382029913209    2.58543043329828    0.71672531736910
H         2.18690409534606    1.69791712784019   -2.75309769143729
H         0.42145223151011    1.64845165138280   -2.87473621751940
H         1.27488533146358    0.42033107034292   -1.94271080973555
H         1.74012206774520    6.37502327444455    1.81615598175178
H         4.09414006943911    7.17888567450514    2.13876420967196
H         4.39789150865799    6.90646981117567    0.41405429296499
H         3.97939564969172    5.54885024171707    1.47837379522367
H         2.12546074269567    8.76648623438231    1.84192535276390
H         0.94291307554850    8.44558735859224    0.56823201020781
H         2.62703235461211    8.79032429944570    0.15330421260364

