66
CSD_code = JIXLAE | q = 0 | S = 0 | Stoichiometry = C25H33N3O4Zn | MND = 5
Zn        9.12772999436014    1.84651289593746    3.90294104514179
N         9.19642246884161    1.75117443046993    1.89998486143292
N         9.01276884854454    2.07311645666795    5.88994174603532
N         8.23498705525656    3.84159277688905    3.70860583101233
O        11.03392714227417    1.85682856294097    3.91438052100568
O        13.46523062767255    1.46677111253922    4.73249179515114
O         7.79435182774949    0.49100891157712    3.99489718342080
O         6.29290462468657   -1.55100880781983    3.43406917958251
C        10.17887976119348    1.31531202240243    1.20144049602112
H        10.01634339176445    1.08487182478158    0.13953777207925
C        11.50061655649084    1.11463201253426    1.68581067456240
C        11.84637515186901    1.39581746832581    3.03550283565275
C        13.21347279332751    1.16302586572974    3.42453719882139
C        14.13401361984876    0.68345419583414    2.52840279594887
H        15.15708649915209    0.50752849904364    2.82470220659776
C        13.76344267852480    0.41111642530874    1.20307374385489
H        14.50660481192909    0.03387508937410    0.51702900220287
C        12.47899307712974    0.62247827778587    0.79530934821241
H        12.18842784112639    0.41337603471003   -0.22499107461786
C        14.74279658952358    1.19269916837630    5.25769403390966
H        15.50634220953378    1.79327547958258    4.74027107442886
H        14.98929393851380    0.12903864767800    5.12441558324673
C        14.71583286806440    1.54229681622890    6.73822726035985
H        14.48290282160354    2.59598449624298    6.86491466646830
H        15.68144899972562    1.33115025104892    7.18950319233099
H        13.94896564023484    0.95729575601039    7.23823998477264
C         8.46924076479270    1.25032456575917    6.71065025304850
H         8.62531269040647    1.40064175696632    7.78818746303561
C         7.65141662395149    0.14273637791765    6.35850647299702
C         7.36762107281789   -0.17516252083042    5.00270254311372
C         6.52730228683954   -1.32025613305039    4.75967946161629
C         6.03292091450845   -2.07000642908597    5.79571597971278
H         5.40518831713899   -2.92821374440309    5.60929623357135
C         6.33356881921465   -1.73542928967318    7.12468375166381
H         5.93299188839719   -2.34220485028143    7.92251577022199
C         7.12277789499360   -0.65679053304899    7.39560557238416
H         7.35800943674357   -0.39570581699526    8.41822493194819
C         5.56871956402968   -2.70112862310736    3.06504613517051
H         4.54320746646139   -2.65138019472434    3.46180700284443
H         6.05337923313191   -3.60214071048493    3.46897702712761
C         5.53984614407481   -2.75924609903044    1.54501893470677
H         5.05334442938635   -1.87143243152471    1.15055613154155
H         4.99869406431674   -3.64196997561703    1.21538242262759
H         6.55542943308907   -2.79490696116211    1.16091115057072
C         7.91515469289433    1.97219819260081    1.29143091472597
H         7.18365631604852    1.43663755711197    1.89922469167876
H         7.88140393600634    1.57425926756587    0.26675182146585
C         7.58418473645408    3.47731303528710    1.26869370918244
H         6.50643427226406    3.61208576846306    1.36496620199649
H         7.87590254459067    3.89343065267318    0.30101988338280
C         8.33050978890052    4.30472062995151    2.31819198505452
H         9.39066976418497    4.30912386471663    2.05540510114032
H         7.95960247353730    5.34217664029147    2.25167798904454
C         9.77570980533408    3.18065156091896    6.39509375676592
H        10.76512167887496    3.13580080993208    5.93464926107577
H         9.87990151282010    3.12629009084895    7.48964905316569
C         9.09762400004220    4.50039766531728    6.01918082025989
H         9.66967148325283    5.31643273118869    6.46719670545053
H         8.09609326854986    4.52723471518445    6.45242011849517
C         9.04530703419453    4.76699811926195    4.51639558947501
H         8.67095130049978    5.79513051953723    4.36808094531493
H        10.06639108974627    4.71458393985178    4.13180277958637
C         6.84218005143334    3.85531812962285    4.14207042588282
H         6.41456303307638    4.86549631535116    4.08083813558493
H         6.76804501839689    3.49301734070294    5.16315993871178
H         6.26338931567292    3.17944939580486    3.51999997702835

