93
CSD_code = JIXPUC | q = 0 | S = 0 | Stoichiometry = C38H38F8N6NiO2 | MND = 4
Ni       -1.44914064450639    1.74293794364921    4.67559493008836
F        -1.04225691167369    4.46089555682019    0.21572000937951
F        -0.34144735941488    3.55069213476061   -1.60664782340060
F         1.79773455464935    2.49674031979161    0.46635548033039
F         1.91444271834013    4.27862262339158   -0.75196155985449
O        -1.12004619701553    1.26198791377762   -0.70940200154798
N        -0.60614301961363    3.02147069651102    3.56495659111199
N        -0.50912608796876    2.91993115728600    2.30364269213344
N        -1.07439467424367    0.36423301257830    3.41387726168033
C        -0.95107278873201    1.88760824120078    1.59356744035461
C        -1.39136725201833    0.62982964630324    2.17823191836056
C        -1.22220791658921   -0.88147011434097    4.00816480607547
C        -0.88710070589806   -2.09002426407858    3.39717802372386
H        -0.42053551678455   -2.08542900737474    2.42357385862581
C        -1.14456604729000   -3.27891184704683    4.05056015753905
H        -0.89437817146132   -4.21382702103915    3.57401624373155
C        -0.11536202501409    4.21726341655365    4.10948089069770
C         0.40206736368973    4.21199683406388    5.40474750798140
H         0.46717984969529    3.27528333183771    5.94742290399654
C         0.82938781988715    5.38626239719652    5.98730079527166
H         1.21863039445145    5.36996226669020    6.99434320759800
C         0.75377899153491    6.59259185559096    5.29867260313065
C         0.25471111499349    6.58606938162759    3.99960934117934
H         0.18689824916586    7.51447289081742    3.45202144197140
C        -0.17263561208560    5.41879087474057    3.40257604139642
H        -0.59873385762062    5.42861128255788    2.41212930226961
C         1.21140072201489    7.86682209484842    5.93414966612656
H         1.15843382677752    7.80106542344710    7.01771592675781
H         0.60691615026496    8.70573579754651    5.59797898804251
H         2.24663972036517    8.06901957290302    5.65769920592075
C        -0.84328807177650    2.05298212562312    0.16604399519345
C        -0.27022217668549    3.44213768041424   -0.26643096561394
C         1.18833102787768    3.67284117924944    0.20320655674233
H         1.21067960538491    4.28724892914594    1.11563680007000
C        -2.32739559215034   -0.22869681414940    1.38839849617033
H        -2.41703757538765   -1.22256213618133    1.82067877211665
H        -1.99508169370495   -0.30979980887327    0.35536025446530
C        -3.70914676735182    0.45595884299849    1.41934010599600
H        -3.61331088604961    1.46617257390206    1.01521930507831
H        -4.37550354236530   -0.10240000401859    0.75997723978163
C        -4.33174763006480    0.51896413395513    2.81659324474374
H        -5.19253741644775    1.19066592432359    2.77990236291021
H        -3.61888959172589    0.95256550177093    3.53977219499326
C        -4.79443226543998   -0.83934039638907    3.33126286978674
H        -5.27480910811341   -0.72789181624061    4.30056676880347
H        -3.96191566364832   -1.52922461595917    3.44913188645904
H        -5.51136489300580   -1.28093928099283    2.64248061486921
F        -1.85647339475117    4.46068523906097    9.13573586695708
F        -2.55770980592817    3.55029291500002   10.95784768831165
F        -4.69635511829724    2.49649977650722    8.88419912745568
F        -4.81340782648719    4.27825268102222   10.10266259684359
O        -1.77877855496009    1.26171024198704   10.06058780983961
N        -2.29215012265843    3.02147501913016    5.78627232077904
N        -2.38919682199266    2.91988290327874    7.04758352426428
N        -1.82382251820943    0.36418502819204    5.93727985555017
C        -1.94734176785667    1.88750666330687    7.75763441799110
C        -1.50695238287409    0.62975504471112    7.17295392747062
C        -1.67591841170823   -0.88149840567092    5.34296945384465
C        -2.01098789516825   -2.09008719513347    5.95390885718160
H        -2.47758620868393   -2.08554859464429    6.92749817324427
C        -1.75348762881000   -3.27894153377987    5.30048132443498
H        -2.00364229145028   -4.21387960555743    5.77699546762505
C        -2.78279826702791    4.21735440380830    5.24178495055554
C        -3.30071393340673    4.21200396249667    3.94668779676970
H        -3.36597026692748    3.27526790913867    3.40408835762066
C        -3.72797174240049    5.38627843840564    3.36413897411857
H        -4.11719330315010    5.37006843869387    2.35709563181579
C        -3.65161905135538    6.59273901534265    4.05253386048419
C        -3.15209641962886    6.58633712978653    5.35138541303013
H        -3.08428256045752    7.51466776140610    5.89908345877524
C        -2.72496193461537    5.41894962649518    5.94848620558686
H        -2.29888675440983    5.42874491538789    6.93894817160948
C        -4.10910444505785    7.86678103603427    3.41668142702053
H        -4.04992595284138    7.80262199890992    2.33280726861600
H        -3.50837550436591    8.70719158792676    3.75776126716844
H        -5.14696012967893    8.06557248072320    3.68795544262983
C        -2.05537344810473    2.05277097495214    9.18515095754450
C        -2.62860103568194    3.44186832329636    9.61760264468707
C        -4.08703884245240    3.67258612595498    9.14761962550554
H        -4.10916005106602    4.28708994914558    8.23524767161666
C        -0.57092206766091   -0.22873042329182    7.96282970403447
H        -0.48121090374950   -1.22259295291283    7.53055845116497
H        -0.90329148718925   -0.30984385349815    8.99584906989676
C         0.81080833485297    0.45597206067276    7.93195119738722
H         0.71489768820188    1.46623782610846    8.33592152931273
H         1.47711508760281   -0.10226688703531    8.59146614359252
C         1.43356485277438    0.51882163080082    6.53475921764595
H         2.29430904108025    1.19057836299061    6.57145630781447
H         0.72077849975700    0.95228825789256    5.81143439042216
C         1.89638636206701   -0.83954496897148    6.02036855413012
H         2.37691312357314   -0.72821998694320    5.05112788344960
H         1.06392716551967   -1.52949363700480    5.90246515267766
H         2.61323424838820   -1.28100611533509    6.70932650831070

