53
CSD_code = JIXQEN | q = 0 | S = 0 | Stoichiometry = C18H14F16N2NiO2 | MND = 4
Ni        4.05502623253050    4.60379900168655   -3.16429498322965
F         3.69026591469439    0.63386232952562   -0.42298128150739
F         1.56710601358954    0.81660295444044   -0.70734248696503
F         2.18240208029163    0.91073057526524   -3.58971492835877
F         4.16157039594116    0.26806925174122   -3.00974614018118
F         3.08094820114484   -1.80627100561863   -1.52424621863780
F         2.70126654774270   -1.82035642475720   -3.65040869574559
F         0.44775077451349   -2.51577100105825   -2.76470829035871
F         0.13189228114487   -0.38056902818037   -2.72074189511285
F         8.35691707705330    4.14014727445185   -5.90536360828284
F         7.35089582772813    2.38503216085855   -5.13837246796362
F         8.55123162221180    5.24282943571267   -3.47533246165384
F         9.38406396825434    3.24960410818611   -3.50359358010476
F         8.17945114048892    3.73247026345706   -1.22007668717727
F         6.38430902555733    4.49802732128977   -2.12767747898012
F         6.27142117475482    1.91553446197569   -1.06342629783780
F         7.72078884322029    1.24379358042913   -2.52513622725418
O         3.77842994580108    2.90989260490491   -2.43361899337087
O         5.25452836366609    3.80216623574289   -4.34652699344604
N         2.85737094335562    5.42112705729419   -1.97810072657662
N         4.25890241388430    6.29010887912714   -3.97075086037382
C         2.93291988446327    2.61098836723580   -1.54171892827618
C         2.18530937951667    3.46924945015507   -0.77681275881725
H         1.54949706615869    3.07413868427630   -0.00483146088311
C         2.21250944378172    4.86880485197153   -0.98439764948093
C         2.80238061507827    6.86849095226162   -2.14132929697379
H         1.80037684650586    7.25725881745314   -1.93356607476907
H         3.51338079385286    7.33306870808125   -1.44629733068556
C         3.19773527472223    7.20393952632796   -3.57922354870840
H         3.52069511339141    8.24765975220101   -3.64221634974088
H         2.33507121323241    7.06112208272756   -4.24349824130262
C         5.08748740302623    6.62230527464444   -4.92213336008673
C         6.16616685047728    5.77675798797260   -5.28576234260760
H         6.98526026579885    6.18055727708386   -5.85393175969951
C         6.19094542255828    4.46639242893172   -4.88404100952817
C         2.76575155286001    1.09704604400936   -1.29124814345312
C         2.87520854428637    0.28856627743991   -2.61634559375985
C         2.38612108517058   -1.18829967529101   -2.50585393858551
C         0.87209310535418   -1.37398884979918   -2.20355676116984
H         0.69916989546887   -1.42426298216047   -1.11749729266540
C         1.42753103458459    5.70129130756592   -0.01082861232319
H         2.04728633357005    6.49722715898076    0.39783913547876
H         1.06555852842100    5.08570689946413    0.80586235284978
H         0.56776428786576    6.15544658975794   -0.50290876766585
C         4.99344483085896    7.94479035197426   -5.62600885564938
H         5.21862289363471    8.75995209612342   -4.93878003688832
H         3.99056254519608    8.09591794385109   -6.02114804699228
H         5.70234661262480    7.98357642856420   -6.44644271845058
C         7.52281659187422    3.70753120227566   -4.93552662952305
C         8.22598111487323    3.92942780657949   -3.55830824377952
C         7.38233570489983    3.57435047914740   -2.29394359208080
C         6.76213410335929    2.15372498690138   -2.29158914568045
H         5.95249687496848    2.05473173681582   -3.03079369501734

