66
CSD_code = JIXVUH | q = 0 | S = 0 | Stoichiometry = C31H29N2O3Re | MND = 6
Re        2.27109863732853    1.64639694143129    4.79962113126169
O         1.70589523314627   -0.64702620642647    2.79296110891132
O         3.66922305943713   -0.16363273582626    6.90032025626235
O         4.88751613235056    2.49731497779663    3.37363760509777
N         2.26181205490702    3.28396404623135    6.20840523046525
N         0.39233150707813    1.47234854190921    5.85883185172681
C         1.95810471716659    0.19950196636873    3.52964106539301
C         3.16643013179491    0.49678445525630    6.11245259579541
C         3.92210748821581    2.13965589594290    3.88670076017448
C         1.16645653520927    2.96988686300709    3.60786444209781
C         0.40026126948730    3.78945255229359    3.13456384971233
C        -0.43880928775936    4.69895664933586    2.58036510031274
C        -1.20824544872977    5.51134339360535    2.10999483986922
C        -2.08769713355245    6.44537899731190    1.53156808738852
C        -1.60771939200019    7.40956619675381    0.64031413437701
C        -2.47521159775749    8.31795529229727    0.06786452213739
C        -3.82736742752244    8.28297879637048    0.37182036181495
C        -4.31033483261325    7.33152667528186    1.25651805034723
C        -3.45187110981581    6.41829460010520    1.83525496883592
C         3.24778230606009    4.16866773376959    6.36329338270653
C         3.17846947013219    5.24056908098607    7.22479122552906
C         2.03270866477608    5.44623967746708    7.99671308105459
C         1.01221735689953    4.52355220602623    7.82996555494815
C         1.14089619566788    3.46187356703556    6.93593902583020
C         0.08505262238302    2.46498068804911    6.72081568943200
C        -1.15749935095178    2.52343178325649    7.34270359955998
C        -2.12916374019129    1.55893576440202    7.10620845287204
C        -1.77780263925313    0.53767637390197    6.22615529544919
C        -0.53025947310597    0.53885801933034    5.63555282608690
C         1.94926649121719    6.62437172969681    8.94587596491414
C         3.09658209862275    6.52450154554734    9.96129806614412
C         2.08396036300485    7.91778755230819    8.12968763260397
C         0.62549544039014    6.66932761002213    9.71316794161015
C        -3.48265121817407    1.65883692897731    7.78124426559225
C        -3.28572444090353    1.65849517110559    9.30408875839492
C        -4.15403831356797    2.96707987937341    7.33897296775283
C        -4.40170737092062    0.49231911421702    7.41206926053087
H        -0.55322022984161    7.43163695752058    0.40414400326085
H        -2.09703736543811    9.05892858612498   -0.62230877887342
H        -4.50303990959091    8.99426966965152   -0.08050317377174
H        -5.36466393686277    7.30223144364208    1.49415357697948
H        -3.82616134229638    5.67313026869242    2.52381019865737
H         4.13702527205484    4.00885502702667    5.76648334502505
H         4.02155918212154    5.90877710371002    7.28622090686422
H         0.10252641861035    4.62061130408164    8.39481827101966
H        -1.37210049875587    3.33936990403031    8.01181339292849
H        -2.45872446811112   -0.25918000537179    5.98248464986254
H        -0.25998757988575   -0.25018495409990    4.94484102521031
H         3.02469868394640    5.59667728179924   10.52558214520464
H         4.06584718420194    6.55256902302235    9.47148972235829
H         3.04555125450920    7.35632938248807   10.65971581850374
H         3.03898430779415    7.96465943391033    7.61395575115502
H         1.29150017792913    7.98125634368709    7.38674964938780
H         2.00976389021656    8.78029640316255    8.78769232676289
H         0.62467750710429    7.52884516492101   10.37946643789847
H        -0.21839435991806    6.77394472604089    9.03455025933721
H         0.49235139372206    5.77671366590042   10.32121141037995
H        -2.77632224477802    0.75024711434988    9.61994213414225
H        -2.69936392816439    2.51214307505456    9.63364996743713
H        -4.25172370981684    1.70094339745615    9.80138615907099
H        -3.57006345106750    3.83578895324723    7.63147041404007
H        -4.27112236300014    2.98415738828925    6.25749740711162
H        -5.13815125394157    3.05061297113460    7.79385278534230
H        -5.35572821607308    0.60931560006821    7.92106771958339
H        -4.59465443730072    0.46874146340385    6.34215795868379
H        -3.97229097496096   -0.45843901561355    7.71996156488781

