87
CSD_code = JIXYOF | q = 0 | S = 0 | Stoichiometry = C28H50ClN5Si2Zr | MND = 6
C         4.62448489317234    5.00928540832321    6.83832516277969
H         4.07292699356233    5.05641245381984    5.88010247751227
H         4.57253765507076    3.96685136080353    7.18555771191567
C         6.13118013555505    5.29232796877772    6.49358769050571
C         6.27667669882426    6.47771311725321    5.47556442320370
H         7.28486761399116    6.39263321339031    5.04036921400347
H         5.55865677408679    6.26837350199918    4.66006622375724
C         6.65777884672935    4.03905829369858    5.78085913052660
H         7.69473688988533    4.16147223432490    5.47451136950456
H         6.06331839215228    3.86284871785258    4.88682786032069
H         6.57501702808527    3.15917786856095    6.41491970787811
C         6.89621603584691    5.62242144408252    7.74566083848548
C         7.96139870784975    4.84960809724362    8.21357269896089
H         8.26748246112508    3.96055992740308    7.68858241912468
C         8.63017554418447    5.22111093692724    9.36504583266257
H         9.44971960472819    4.62392915044881    9.73602711287097
C         8.23185784409004    6.37390813004386   10.02630457782501
H         8.72995767588085    6.70624835663117   10.92253225363384
C         7.17159732664913    7.09155314445629    9.50505775332226
H         6.82723836276761    8.00218021069098    9.98717660456728
C         1.66383157360506    4.13782553241388    8.42821593612950
H         1.23176658240331    4.44917560173481    7.48316485198534
H         0.85311707746423    4.01429992786953    9.13708919404841
H         2.11716363983653    3.16352274754131    8.27576388228802
C         2.08013767722982    7.05553782314459    9.51903140150702
H         2.37210433720652    7.40422750152228   10.50413601648449
H         1.00163097390781    6.93731558556364    9.52059213582654
H         2.34234094404278    7.83322527410772    8.79418955745142
C         3.82847556034011    4.65419297280690   10.60347968864188
C         2.82243199453818    3.96726383213229   11.52813020642113
H         2.35697414117690    3.12035758951738   11.03148258083174
H         2.04012919255818    4.66120441526868   11.82479176688707
H         3.31768622177742    3.60431549996715   12.42915002711606
C         4.86811648944611    3.62195735351979   10.16279091750815
H         5.36105642122917    3.17397654975135   11.02685175510721
H         5.62860412158332    4.08982393571370    9.54122868503254
H         4.39985685628789    2.82323392966966    9.59091604057303
C         4.54254590355191    5.75341604581581   11.39462399454263
H         5.21601060405623    5.32120840103036   12.13624793869992
H         3.82367679381964    6.37652609001088   11.92016942273900
H         5.11998110874386    6.39573387342571   10.73067280865849
C         6.11480930098979   10.47038466228850    6.81024994517212
H         5.02726340232117   10.33152806749053    6.80007446319196
H         6.32300617619967   11.48816125262116    6.49422984071160
H         6.46114169662616   10.37189689561743    7.83917366136825
C         6.73762894967185    9.80665461904417    3.82973284397055
H         6.81181950741670    8.98333988390026    3.12490923410819
H         7.49752629544525   10.53232064569529    3.56000543934060
H         5.77462143845752   10.28429352054004    3.67420310724605
C         8.87022178452290    9.18555619501353    5.96249650830953
C         9.40222734990713   10.61847754448080    6.02894145277727
H        10.48177745592227   10.61707350774640    6.18238001275507
H         8.94355551821779   11.16106994292107    6.85103725217003
H         9.19466922958952   11.15558198094794    5.10718193917359
C         9.19497393096128    8.49239252065357    7.28588600063253
H         8.90462327803329    7.44459861138800    7.24642512119228
H         8.66829776797608    8.96661262880974    8.11225674568755
H        10.26533547405158    8.53834872465062    7.49284446785993
C         9.60368025093551    8.44747117715368    4.84193598241115
H        10.67887851707556    8.44278061961667    5.02485584295833
H         9.42549719067614    8.92239939314576    3.88125578980401
H         9.26968258738975    7.41392198367974    4.77594721790727
C         3.33710656635914    8.26573984531936    4.34325943144774
H         2.73850797821876    9.14163843928610    4.04474677135593
H         3.19899194545608    7.48870262384639    3.59454499120265
H         4.39001532484691    8.54984025021041    4.38741886260978
C         1.70527821134813    7.09436708459015    5.69733597364655
C         0.66088029104302    7.47815910455378    6.54086430666022
H         0.77455503454488    8.35930672523699    7.15485108998678
C        -0.51383649333368    6.75263996488202    6.58601061969132
H        -1.31179927266686    7.07289745022673    7.23999308816602
C        -0.67876606659456    5.62951117544151    5.79400535916660
H        -1.59655342647679    5.06278026002705    5.83095560285480
C         0.35114743641299    5.23840074203679    4.95290051724119
H         0.23614620794200    4.36118027488830    4.33233821583304
C         1.52781522298561    5.95858333089819    4.90098322758924
H         2.32000476342053    5.62910066382007    4.24379872803598
Cl        4.69346787558512    9.14126394863916    9.51879598579711
H         2.64004688965380    9.66208605645071    6.40871210442301
N         4.02748293129956    5.89366720815796    7.79041127969420
N         6.05629831104405    7.78638021112213    6.01294198349878
N         6.50796999084709    6.72904074680091    8.40361434308982
N         3.11174667473221    8.78217585354442    6.67531021251234
N         2.93156619362082    7.79588543251270    5.66934369888484
Si        2.95749745241191    5.42593132722738    9.03057830305749
Si        6.94462926289619    9.18879464874389    5.65236310787229
Zr        4.65479989309384    7.81774823491345    7.54532945506832

