150
CSD_code = JIXYOH | q = 1 | S = 0 | Stoichiometry = C74H70O2OsP3(1+) | MND = 7
Os        5.94445151841510    9.17775876001558    9.94501304605575
P         8.27191782671587    9.50671549150456    9.47433237607971
P         5.58365404571874    6.77645480461202    5.91961839081422
P         3.57349696042870    9.04237522275469   10.07497314372474
C         5.85603830358307   11.19955348921494   10.50678439723669
C         5.92502084363640    7.57528755764033    8.58623701755612
H         6.02810844777743    6.49881184702832    8.74172708680691
O         8.23989639122125   10.98474577435696   17.27232824095679
H         8.09926637659606   10.53386098507798   18.11021509287580
C         2.86982290781511    8.87418404408416   11.75752616349275
C         9.54456400101879    9.37675412543891   10.79664386615601
C         2.10437263809038    7.79003881214899   12.17303904120199
H         1.87211078274112    6.98641592185767   11.49021561726293
C         9.10338842234175    8.43311715608838    8.23579322431246
C         9.12170037330973   12.19916806987707    9.61728806195037
H         9.35478364968625   12.01139495239567   10.65430999950881
C         5.65981560302584   10.11627239050341    8.11070558988645
C         6.12149604508764    8.99802350249096   11.99316011858015
O         9.54964179274806    2.41166951240522   11.03670534377080
H        10.34610473077254    2.91368188820495   10.83013539069692
C         6.19077145455819    9.79945285878199   13.06602273953254
H         6.26797010880175    9.36116905864133   14.05592994816717
C         5.63607622704796   12.06974036333509    9.40513239940150
H         5.56041095323862   13.14262416583676    9.55215326084652
C         5.72986115625995    7.94104009446555    7.28519151936717
C         8.91658645626432    7.05970584711974    8.36981696915128
H         8.24656789720910    6.69998580224858    9.13308600658266
C        10.73957376812908    8.67981956265858   10.63771705471427
H        10.96192366864103    8.16509723544352    9.71580250688203
C         3.15029468093283    9.89278335023775   12.66760012747349
H         3.75243835648489   10.73114533298462   12.35027853196870
C         6.33436608704796    5.18262692382441    6.29976875303555
C         9.30273833710102   10.02675577530493   12.00527597239517
H         8.37308548703910   10.55753105289637   12.13909614335384
C         6.40405105215686    7.45675580095205    4.46214439482744
C         7.46492602855179    4.73223734074530    5.62795851830586
H         7.91023105960422    5.33677307870204    4.85056090879733
C         2.64562316316578   10.47713871966925    9.40920867691623
C         6.11181233416967   11.21952413156577   12.97405592897849
C         8.34817755173098   11.44863081225491    7.47562036320575
H         7.96187969280694   10.66371273368835    6.84021320606402
C         1.62468107183519    7.73412986075848   13.47072413822623
H         1.02944353116527    6.88838815594233   13.78122028905878
C         3.20486906654448    6.37160275857098    9.41506091694039
H         4.11663867376595    6.23829790930872    9.97953163464036
C         2.69473443656965    7.65734906244542    9.24605110560232
C        10.02298385246134    8.89338191273501    7.29708121444975
H        10.23326279909656    9.94855541210174    7.20884816890326
C         9.60299618659048    6.16603116453830    7.56965559634133
H         9.46125078052371    5.10382707470766    7.70462134310618
C         1.89970507678670    8.75333558454173   14.36579126641106
H         1.51999168265746    8.70482080108900   15.37499244642993
C         8.64075404354265   11.17427088637258    8.81171657399772
C         1.97078949677790   11.40947114376478   10.18703433148797
H         1.91540830848234   11.29604370248179   11.25821102832032
C         1.22384801806010    6.11004511269584    4.68931008832336
H         0.19929204527844    5.96787917646284    4.38173560617954
C         5.53148767992846   11.52265385085946    8.15653214337781
H         5.36357388536911   12.12306043592278    7.26995713300497
C        10.23407288697724    9.98615624499019   13.02671205945615
H        10.03856257232133   10.49756893969698   13.95670045621585
C         8.55143305414368   12.71321306055407    6.95699669320699
H         8.32846692737174   12.90917655979908    5.91817298046763
C         5.59663101692379    9.33942079948643    6.99052891316966
H         5.46610919925446    9.70408394246939    5.97413753429502
C         7.21741901058699    5.37301084387488   11.36257300662715
H         6.95086781597870    5.37949993309584   10.30321429949539
H         6.40523429989151    4.87516821425279   11.89755714322390
C         2.54039824228674    5.27325635317311    8.90059207505805
H         2.92928866640804    4.27768573316165    9.06345533124067
C        11.66556217293622    8.63648593711486   11.66535619842912
H        12.58712350970862    8.09096720320900   11.52595461014199
C         6.14558628622945    7.67093835178957   11.59183213952414
H         5.20986093978997    7.11989984796710   11.73444243708973
C         5.86359270062182    7.32855114265522    3.18738548674484
H         4.91832676591193    6.82249252484095    3.04792549150672
C         2.65150994417565   10.64156484010611    8.02384450730555
H         3.15200543513152    9.90319064358895    7.41507893850430
C         7.61951113833543    8.11042432805894    4.65197055819724
H         8.02262226332253    8.20389036369575    5.65121693594596
C         1.48901726053022    7.81421854844506    8.57131471546315
H         1.04863433871390    8.79371897391939    8.46263634935154
C         2.66336574617261    9.83538873198876   13.95952158880314
H         2.87936783154559   10.63738942756298   14.64991538757326
C         9.03299746208531   13.72843626640437    7.76719368009265
H         9.18678660107733   14.71764258655812    7.36347374357941
C         2.01778428991671   11.71627590971157    7.43290490446309
H         2.03116392751237   11.82632011033391    6.35812510814589
C         7.36467101666344    6.80473595763249   11.87475804323352
H         8.25946648177168    7.26236269822085   11.44310411990119
H         7.51760832756083    6.77365889280326   12.96065393308425
C         9.31699987852321   13.46664941679227    9.09597472469660
H         9.69454683693261   14.25257585665656    9.73300253713948
C         1.36655152674672   12.65312282489938    8.21924550890751
H         0.87622594854369   13.49927424603683    7.76248322762671
C        11.41846364375985    9.28824569184299   12.86069049224004
H        12.14361589866556    9.25233905041121   13.65905183639342
C         8.01103573784942    3.50418709122404    5.96030773754500
H         8.88327963677776    3.14703053101484    5.43417726638244
C        10.69520972148506    7.99735930053304    6.48156406912781
H        11.40387100534270    8.36768622466458    5.75559292451180
C        10.48444518422570    6.63463847597603    6.60894947097158
H        11.02106468904786    5.94181294914938    5.97857373358401
C         3.85597813793287    6.47039479416803    5.46751828195077
C         6.54527910562773    7.85666038562311    2.10495256405083
H         6.13072134128705    7.76131379715520    1.11308065079418
C         5.96570135727817   11.84579469714179   11.75679052534812
H         5.88889953929674   12.93110482723340   11.77046034647003
C         7.64362730517550   12.16483875359523   14.68678576024076
H         8.07713447431205   11.17535338091849   14.83409132563183
H         8.19942686169407   12.67194248165846   13.89451818641434
C         0.83196539789020    6.71408773830423    8.04708683369789
H        -0.10589977869494    6.85093432246483    7.53019454781129
C         8.29272315506715    8.63302079262109    3.56435521646558
H         9.23403136656060    9.14072014425438    3.71005818495193
C         2.08246517995302    5.02440086890905    4.75179380294321
H         1.72804624291555    4.03849349288862    4.49191363012793
C         2.99148402740561    7.55950190810418    5.40713835758512
H         3.35601013867916    8.54441502345723    5.66062371547261
C         5.75336012506609    4.40383062899771    7.29997787187434
H         4.85513775448599    4.75284553996961    7.79068317423552
C         6.18331686622943   12.01385765265689   14.24052465017285
H         5.62072823107516   11.50039659942231   15.02262051056646
H         5.74868767675996   13.00512160566096   14.09302567455063
C         1.35600415567979    5.44322527546800    8.20256462178126
H         0.83576219552028    4.58733935152548    7.80033213859406
C         7.75558616884733    8.50612865538503    2.29193331513109
H         8.28070951584160    8.91658881715073    1.44321892540684
C         1.33870000744876   12.48944837684693    9.59247354987521
H         0.81822705507409   13.20535520642816   10.21095841126284
C         3.39942295538409    5.19815255723739    5.13761735049567
H         4.07177044414170    4.35264585404151    5.17486040448787
C         8.50596134850362    4.57333261566898   11.53573919387511
H         9.34662458558197    5.14294002526988   11.12524322031370
H         8.70323296824170    4.40597863332379   12.59600572402866
C         1.67848021298574    7.37751387054448    5.01782021722647
H         1.01090018555000    8.22411971881228    4.96776790833722
C         6.31517563566842    3.18558706907540    7.63392644775820
H         5.87227602573267    2.58164820894517    8.41142876617705
C         7.44374934629038    2.73564426492675    6.96459700063419
H         7.87752125134407    1.78237603359920    7.22528389031618
C         7.41199569649705   12.12877036273579   17.21611083522174
H         7.54357128806408   12.74531854457880   18.11527637135434
H         6.35490560832594   11.82939410090359   17.16206586445265
C         8.42458047323998    3.22361422437690   10.82185853702036
H         7.57598260449635    2.64739514747367   11.19906332469550
H         8.27415285200599    3.39246940528036    9.74182043703297
C         7.79864086043052   12.94980869574706   15.98822956329313
H         8.84557125584791   13.23689466841711   16.09838072177502
H         7.19378514041770   13.85768695630326   15.96350638574914

