52
CSD_code = JIYKIM | q = 0 | S = 0 | Stoichiometry = C19H26Cl3NNiP2 | MND = 5
Ni        7.72300569499972   10.48397127731202    1.31300514257338
Cl        9.81425800232054   10.67391946240845    1.68869008680467
Cl        7.53519002578770    7.60192977347458   -2.53959947015176
Cl        3.50952453782147    9.95708488171562   -2.13593819073877
P         7.91410378047560    8.40023313211040    1.86294160646406
P         7.59568301018098   12.61074026161005    1.68104579786600
N         7.68430473971927   10.17914171771712   -0.91752748116167
C         5.87824304897140   10.33453395547788    1.11004080820212
C         4.91958055041028   10.36488312145203    2.11994579909572
C         3.57042024560824   10.27243441074175    1.82600584448909
C         3.13792901332543   10.15228861602729    0.51330057224666
C         4.07215879382168   10.11537777973339   -0.50169278985585
C         5.44214051547557   10.19712175787445   -0.22839173414583
C         6.45002851302908   10.10601277373986   -1.25438435837569
C         8.71783369437204    9.95190994502964   -1.80756706349073
C         8.79110166981573    8.80611988100457   -2.60899873786594
C         9.88928919636009    8.56826831935790   -3.41549131320660
C        10.93023045261299    9.47927804409153   -3.45088565356015
C        10.88333650029828   10.61155372067391   -2.65287713591220
C         9.79737245746495   10.83726544269783   -1.83422891414774
C         8.35357589093866    8.15904882084524    3.62352407443525
C         9.24643143406844    7.47528762455826    1.02027494617770
C         6.52229744115855    7.21955412446813    1.67063857357645
C         6.03109132096800   13.54913969330007    1.46285188879372
C         8.01364998538912   13.02503567743574    3.41405473147829
C         8.74969513373844   13.69531662865447    0.76471954268026
H         6.13722835868843    9.98872305663463   -2.29162467256068
H         6.18074064771736   14.59876503546080    1.71183406644905
H         5.22728534005480   10.45959731401432    3.15445796035136
H         5.70266990182473   13.46514176256380    0.42849649544303
H        11.70315055848225   11.31342749880483   -2.65988982005822
H         9.76298801618284   13.31846932761361    0.88884114021484
H         9.01677680935758   12.65844931153042    3.62455787665818
H         9.75915473711904   11.69610017092130   -1.18319808368287
H         2.08608266607545   10.08484696742230    0.28366810640542
H         2.84034729673234   10.29554233101119    2.62292998813402
H         9.34365538346799    6.48482564861695    1.46442335341700
H         9.92356074776222    7.66989765627414   -4.01239553888473
H         7.96992251186934   14.10369738533105    3.56119404139189
H         5.25663729285016   13.13029810841214    2.10151992160069
H         8.48644271058525   13.68948654595765   -0.29197690432739
H        11.78062773138139    9.29341672493012   -4.08851277376694
H         8.68162226677490   14.71224938165703    1.15029921971274
H         7.30941924599586   12.53488650316331    4.08456336944951
H         6.23046708135664    7.18369771376772    0.62259727890933
H        10.18140886214649    8.02337519738756    1.11639900161006
H         9.00214737832145    7.37964486599506   -0.03565888317418
H         7.55801773457697    8.55253335240259    4.25439214465593
H         9.27232352666357    8.70577579562722    3.82892400806486
H         8.49641158557200    7.09911053376450    3.83156529696242
H         6.82162412770061    6.22443929779864    1.99679758736015
H         5.66691183160223    7.55405166942453    2.25393924739775

