47
CSD_code = JIYKEI | q = 0 | S = 0 | Stoichiometry = C16H25IrN2O2S | MND = 4
Ir        6.12940699670345   14.66482901547244    3.35759162773494
S         4.81957899723333   15.71137214222779    4.93818258372937
O         4.35268267155215   17.09162957838114    4.84715543670622
N         7.16323694583061   14.13279044079650    4.98470424068659
N         7.92295785342336   13.63403685822628    2.41024161134764
C         3.29119650154262   14.68712031158857    5.31379636485539
C         2.70237079771718   15.18851892159830    6.61726052308950
H         1.72262320166604   14.74695192788824    6.79484059749385
H         2.59364013161297   16.27045588831585    6.56655827998509
H         3.35038208916766   14.94096974880806    7.45528779310871
C         3.76886349149600   13.25067608261802    5.37361794669396
H         4.40417509564162   13.09205114284183    6.24318931436318
H         4.35005075418362   13.02817757645903    4.47273471898437
H         2.92945664079282   12.55981136547004    5.42368275786529
C         2.35741298005980   14.93049934214869    4.14198142084727
H         2.82468622854065   14.59825980143522    3.21579695112833
H         2.15323255105038   15.99535698179855    4.05710694753900
H         1.41609489987530   14.39950466186188    4.27413569442707
C         5.81708877888512   15.51056516896031    6.34882926226520
H         5.57296296090988   16.04560352111733    7.24474693307570
C         6.90878943355254   14.69636597754016    6.21310965237215
C         7.79588591183087   14.39585271877180    7.29895338666158
H         7.59418692841538   14.85115192956890    8.25573065505169
C         8.85313270475691   13.56504640637440    7.11174447252232
H         9.52915504788018   13.33964158119219    7.92389146330598
C         9.07048812848524   12.98179586499949    5.84679065600063
H         9.89360812338072   12.30671767478995    5.67891412068997
C         8.19620017641904   13.29643540409098    4.83521805128438
C         8.30524450654599   12.67346003655110    3.46571014068124
H         7.61506184134477   11.82689781074062    3.42886662882345
H         9.32221393419146   12.29379938792087    3.29111349590286
C         9.01202440638470   14.62754766510432    2.29780389610298
H         9.29095091702709   14.92129927123924    3.31209795588405
H         9.88726685379725   14.15253346594184    1.83071773879078
C         8.62937573536846   15.88267795993063    1.52699751038251
H         8.44221267213548   15.67837642450837    0.47684320016650
H         9.44043341812872   16.60314716000710    1.59337252710349
H         7.73220686337283   16.32257631635078    1.96308676344967
C         7.76086176127123   12.93178139522063    1.12527932218215
H         8.66962669877107   12.35196518335924    0.90658207741107
H         7.64148879018380   13.69144346953951    0.35242384575215
C         6.54208264212711   12.01844918283243    1.08494802810348
H         6.69708836033171   11.09794848072506    1.64110048955577
H         6.32164886758930   11.75432575601378    0.05454908074943
H         5.68336162496116   12.54788852758754    1.50135683768408
C         5.19270897158644   15.16483020037100    1.85197940934265
O         4.59649411227449   15.46546427072533    0.90227758812451

