47
CSD_code = JIYKAE | q = 0 | S = 0 | Stoichiometry = C16H25N2O2RhS | MND = 4
Rh        5.07234620847142    1.72453160781907    4.54826447289942
S         6.35742675555529    0.68060296967304    3.04890617308740
O         6.87003539169680   -0.67644801311446    3.18498558876921
N         4.04092991419066    2.23414335455401    2.94155503774101
N         3.32321238184920    2.77279867482775    5.48772749643607
O         6.60058964375883    0.72702805061922    6.91600295369451
C         7.84875856460619    1.76162996328744    2.68282464014999
C         7.31317830165939    3.17898650920358    2.61468307522911
H         6.67872512812466    3.36624354601739    3.49804523011335
H         6.70893360434554    3.31940279424586    1.72008412891424
H         8.12305402878479    3.90615398214928    2.60858437920865
C         8.46963381310881    1.27995826389317    1.38718539500094
H         7.81365893624670    1.48791510591235    0.54480621860468
H         8.63075681793759    0.20511704375524    1.44756594765893
H         9.42755450801246    1.76762062698572    1.21021664945436
C         8.78431805261437    1.56544088156114    3.86247124063200
H         9.71967047656808    2.10371481866411    3.71577900674531
H         9.00168595725434    0.50598434621710    3.97993934765783
H         8.31306942635153    1.92268975476531    4.77845547783346
C         5.38627383815993    0.82637213342742    1.61030758524567
H         5.64533121361363    0.26847826899553    0.73326476372640
C         4.30071514210032    1.65068678666606    1.71902512122584
C         3.42339824628452    1.95656284591557    0.62686203383176
H         3.62184085183382    1.48836522417771   -0.32418345978482
C         2.38076962723744    2.80859339925137    0.79811980489398
H         1.71441305294852    3.03634281040928   -0.02112172078185
C         2.16588661494628    3.41386992566891    2.05378584491820
H         1.35494169843621    4.10708637644455    2.20498615327960
C         3.02463621260591    3.09686076547712    3.07689212968208
C         2.93140435634075    3.73522470438339    4.44123284572284
H         1.91914281785369    4.12323375268071    4.62775892425928
H         3.62792410496771    4.57835001851175    4.46203592784599
C         2.22676762916884    1.79696963592612    5.64741339501997
H         1.80362681485338    1.60849111190717    4.65703324677348
H         1.43730648675878    2.23328969307018    6.27704514239574
C         2.68433729383667    0.46352060645770    6.22432320743328
H         3.45305965073158    0.02811673428078    5.57208428342147
H         1.84042843562481   -0.22032634290745    6.27089441007641
H         3.09166269282850    0.57355358226271    7.22640151273150
C         3.57342112253658    3.46802081121566    6.75668964976403
H         3.70237324161635    2.70565880958527    7.52711526214607
H         2.70125392604977    4.08388370092178    7.02494800625400
C         4.82729869694501    4.33596535208922    6.71464548732955
H         5.61232850893869    3.80689579970024    6.16216239184776
H         5.18187415096703    4.52397583902366    7.72421994610829
H         4.64561455919871    5.29595856726940    6.23809220151721
C         6.01233110147790    1.13868480617848    6.01858344327427

