94
CSD_code = JIYMOU | q = 0 | S = 0 | Stoichiometry = C48H42P2PtSi | MND = 4
C         0.32124379818412    9.06015946840343    7.44275214158861
C        -0.20184158121526    7.82721023449077    7.82470693064682
H        -1.20059567610258    7.55381308096096    7.50629136931891
C         0.53621730064659    6.97062335616945    8.61580085492131
H         0.11902996279044    6.02188431962358    8.91982993628401
C         1.81176584243720    7.33094484892767    9.02079716965698
H         2.38732767713513    6.66505624713227    9.64648507544259
C         2.34820005467371    8.54193049376214    8.61968031582558
H         3.34551038975040    8.82045445293186    8.92845890169040
C         1.60947957737055    9.40550795852294    7.82997123290801
H         2.02957077061240   10.35375144652815    7.52364992095899
C         0.12624668845436   11.73552885582387    6.55178399957372
C         0.97592489192847   11.99520896396029    5.47673498620171
H         1.04431318433655   11.26431268372948    4.66643478725057
C         1.70328029481781   13.16732954089100    5.42600334636390
H         2.35540239079300   13.36598007045996    4.58860501613694
C         1.57679155321586   14.09711640332366    6.44665354263734
H         2.13765868286064   15.01921468303515    6.40865371759492
C         0.71657712529317   13.85434942880922    7.50412057654888
H         0.60461456420644   14.58974902466547    8.28798898694360
C        -0.00984613367997   12.67627556489798    7.56201881160230
H        -0.69275528228553   12.50283131396531    8.38106644335482
C        -2.16933182372701   10.23973582508619    7.56369365087657
C        -2.00526033446428   10.35618181030530    8.94178059731731
H        -1.01057722182996   10.38397328625549    9.36708813425960
C        -3.11334172947197   10.41682171686006    9.76605035816448
H        -2.98319103107525   10.51644766752991   10.83415766545959
C        -4.38841751643319   10.34442918652343    9.22665935571478
H        -5.25053835641510   10.39308771614032    9.87553356817748
C        -4.55549157243215   10.19816175549447    7.85976996644076
H        -5.54695587755988   10.12765628110374    7.43753870616697
C        -3.44940040397602   10.14240881109548    7.03100626629116
H        -3.57275235546443   10.02808163991853    5.96130553524847
C         1.00733362735778    6.76885742510403    4.90209086404799
C         0.43197998253816    5.58601755283577    5.34837564885430
H        -0.56234899677153    5.31205201302878    5.02334503443090
C         1.13945175138757    4.75046364802625    6.19448559774620
H         0.69326840998350    3.82423850668612    6.52749426718339
C         2.41572208291451    5.09194562361601    6.60692591172633
H         2.96773924980708    4.43203901372287    7.25978813092990
C         2.98358583763630    6.28413908732565    6.18515659770878
H         3.97602170590741    6.55715673770758    6.51289439071878
C         2.28051587229246    7.12105370153611    5.34299816076668
H         2.71707255936029    8.05329602328492    5.00598488261996
C         1.38399247804736    7.87653865461627    2.39170787984688
C         1.61928103008672    9.04576681234148    1.67807803677360
H         1.08093282293789    9.94752200462602    1.94831398698934
C         2.52734973755644    9.05568377420555    0.63436008007390
H         2.70503431817410    9.96760704416221    0.08353740166465
C         3.20850314725130    7.89753430168929    0.30007515184011
H         3.91665826353818    7.90166520185898   -0.51559060434549
C         2.98842432807473    6.73189561527088    1.01770999563785
H         3.52587420049883    5.83006875948064    0.76153527846384
C         2.08533460386547    6.71866049244968    2.06407557883930
H         1.92995058032576    5.81252405538369    2.63446330404533
C        -1.23063466575584    6.92383244676236    3.17732043685928
C        -2.42223339378061    7.14143930125819    3.86908790742905
H        -2.42960310154254    7.85075939421192    4.69917036580606
C        -3.57428529556628    6.47016766377692    3.50827251865640
H        -4.49518154714593    6.64541026669740    4.04553633854442
C        -3.54610156027142    5.58110012760148    2.44475315987983
H        -4.44548292238555    5.05835013098514    2.15415593324715
C        -2.36866567400253    5.37183154652375    1.74654376505741
H        -2.35211951558083    4.68740262041760    0.91064853681880
C        -1.21057829211005    6.04018179333168    2.10745303151420
H        -0.29949481593353    5.88475107082151    1.54742447861797
C        -3.99465956065810   11.62949642636010    3.34191921987186
C        -4.81236306416425   12.71636563613901    3.06539505097245
H        -4.46587064429902   13.70954233135800    3.31400693478866
C        -6.05088192538466   12.54601241666966    2.47357854773122
H        -6.67394230585061   13.40442044592140    2.26245758813820
C        -6.49473744855667   11.27454403264029    2.14885363528811
H        -7.46295171582089   11.13907144521778    1.68699074327054
C        -5.68915488701063   10.17982019685046    2.41248853744649
H        -6.02555559066872    9.18480863072732    2.15326193727484
C        -4.45129123232970   10.36292386412272    3.00155788011981
H        -3.81223192714014    9.50671115717999    3.18871919410183
C        -1.43803089316946   13.33939638689790    3.29495195956536
C        -0.97363959832226   14.43221567670078    4.01498663987115
H        -1.11521463144186   14.45579681880837    5.08666686144706
C        -0.33843935953448   15.48828454122881    3.38697892486521
H         0.01667685698604   16.32892742177306    3.96783277250783
C        -0.16020030168422   15.47015749108145    2.01432649613504
H         0.33462670278744   16.29408132468013    1.51891108181018
C        -0.62411128952356   14.39179373025216    1.27920677399846
H        -0.49326712216596   14.37497895593088    0.20572425497501
C        -1.25292989027714   13.33881355206290    1.91802210138677
H        -1.61383653230729   12.49934297662056    1.34063301136441
H        -2.67365487852008   12.51940874252362    5.48573455857814
P        -0.74690423648538   10.14474361999344    6.43195247680777
P         0.17787332081568    7.92472161596245    3.75603718564546
Pt       -1.00337752924909    9.92642100887089    4.16311874683658
Si       -2.29604442790068   11.87966586132643    4.16934146805627
H        -1.19214055077222    9.98636314595396    2.64400150033014

