117
CSD_code = JIYMEK | q = 0 | S = 0 | Stoichiometry = C60H52P2PtSi2 | MND = 4
Pt       10.02797569172749    3.07903216939016    3.93664703459028
P         8.95903052673053    4.34056094630900    2.17870737764172
P        11.18718945061908    5.03768144696266    4.76975379782850
Si        8.92299931446738    1.06912489498444    3.40751579441649
H         8.78783528710607   -0.06912319638673    4.36771033458383
Si       11.23943638049404    1.83710411526241    5.52616310488609
H        12.57280366022222    2.41583673240831    5.94395862263351
C         7.63709533662900    3.78626520837783    1.04835917976879
C         6.30304631570676    4.14119035055909    1.19610849690168
H         5.98889148722863    4.73592115144722    2.04212132392261
C         5.37384942132564    3.73649791434008    0.25448851471260
H         4.33835549979620    4.02141809330737    0.37016350505456
C         5.76601129366735    2.97542963338933   -0.83277676575481
H         5.03754901646213    2.67082773197999   -1.56956675946810
C         7.09201612255652    2.59688870066443   -0.96931663928299
H         7.39940129564339    1.98952129497891   -1.80802671177033
C         8.02289517064833    2.99593295251180   -0.03156327410053
H         9.05821819138970    2.69757540603063   -0.13128472629298
C         9.93673512632354    5.24872500479048    0.92792339356044
C        11.32065986614018    5.13357059801763    0.95214139913429
H        11.78942556650138    4.52472360296178    1.71352896261298
C        12.10220675077314    5.78571150850169    0.01466240156700
H        13.17785560454820    5.68725498087567    0.04941704565559
C        11.50071962886149    6.56143993224401   -0.96077523041661
H        12.10472621588273    7.07702618177258   -1.69280760101135
C        10.11865791548250    6.66277623690128   -1.00736619282348
H         9.64780415442895    7.25406787900742   -1.77948581963004
C         9.33712804884367    6.00267145923299   -0.07760741619351
H         8.25928211734994    6.05650073688822   -0.14443125833561
C         8.09338545749320    5.61666737455636    3.14944344216370
C         7.67623197246447    5.18219846229028    4.40583462920551
H         7.91847821245615    4.16114003286900    4.70936660454159
C         6.96971911723314    6.02390945940725    5.24248205818184
H         6.64138917524918    5.67876223146061    6.21258189009086
C         6.68542086236292    7.31650637214382    4.83205655965003
H         6.13201596429469    7.98008077315081    5.48000176445818
C         7.12186572221461    7.76242998051609    3.59579123545456
H         6.91333689722191    8.77550973300170    3.28401132007921
C         7.82394012131470    6.91902323768185    2.75247252338839
H         8.16977499641976    7.28208583919652    1.79616189235291
C        10.76184100238383    6.80558053283547    4.53932073374004
C        10.04386211334373    7.52310062292456    5.49023499718176
H         9.76480284152146    7.05646180002077    6.42355223686080
C         9.69647686316232    8.84097361344225    5.25526499038700
H         9.14763367122160    9.38932373096883    6.00703636999784
C        10.04916869040050    9.45775519556085    4.06734186395740
H         9.77594442066255   10.48701157809011    3.88756948710871
C        10.75777312352456    8.74810129132988    3.11194514473572
H        11.03965864125142    9.21935177842319    2.18126580900990
C        11.11054717472601    7.43344166063670    3.34546518480409
H        11.67267926606781    6.89106771044139    2.59900680015788
C        11.31595070388817    4.97705521682388    6.58795160002926
C        12.50812761474127    5.07406578101605    7.29146788804380
H        13.44344310525208    5.19846756579266    6.76533641918812
C        12.50344313216996    4.99249434278676    8.67306281667846
H        13.43603362888983    5.05977225279626    9.21438709267163
C        11.31488223822690    4.82271780057937    9.36182646038724
H        11.31808566931885    4.76026176892521   10.43973214581528
C        10.12298000978244    4.71768876344359    8.66509264234251
H         9.19522173757458    4.56652836689423    9.19642569810365
C        10.12707271206011    4.77980883994831    7.28560599105413
H         9.20362232939289    4.66331780867075    6.73430950759489
C        12.91763795853722    5.03309999540333    4.20902886632794
C        13.78742337000475    6.09888681253595    4.42066688365044
H        13.44260829867269    6.98054221486155    4.94410276799667
C        15.08759075308786    6.03139594175104    3.95350788786458
H        15.76137409724546    6.85897976862537    4.12246465304231
C        15.52769368334596    4.90850064306036    3.27018013374866
H        16.54395022665117    4.86323648373736    2.90721119011860
C        14.66414322375034    3.84783271408978    3.05029256019407
H        15.00327030031710    2.97343975300524    2.51446670231823
C        13.36426511825232    3.91221298891979    3.51723165022388
H        12.67628372093258    3.08638288909795    3.35505242063565
C         7.09325264337153    1.22993333318439    2.87228506801398
C         6.63315816740599    0.63888107931895    1.70318788462706
H         7.33969446248907    0.14984242020334    1.04788990248129
C         5.29160845835688    0.66052200441345    1.36870784127923
H         4.95460365242388    0.18598296528156    0.45736910008045
C         4.37850398342090    1.28570246680359    2.20030603135296
H         3.32909263857020    1.30251565474072    1.94148519143421
C         4.81856557941257    1.88431914814022    3.36784968051544
H         4.11192090143740    2.37235036221610    4.02547483821106
C         6.16099243901784    1.84756533574467    3.69647558013281
H         6.48868973989271    2.29712441413391    4.62362946484703
C         9.94069387413443    0.33349606774273    1.97570571425677
C        10.88006741385590    1.11864924906831    1.32021884778674
H        10.98639476443811    2.16358288641638    1.61049369046252
C        11.68083058598749    0.60456005357718    0.31809694238211
H        12.40544715037237    1.23509967587246   -0.18055373708421
C        11.55624369991489   -0.72699872034550   -0.04121287271108
H        12.18197281306648   -1.14019311978208   -0.82010976708670
C        10.63160124419326   -1.52848813259373    0.60698287717404
H        10.53801703210046   -2.57053287994214    0.33402479560717
C         9.83369421369339   -0.99926302993519    1.60548806801671
H         9.12094841190290   -1.63135530597557    2.11525348753166
C        11.74550038575751    0.09078548977118    4.96399019539836
C        12.61815932692102   -0.09631152834780    3.89944493388969
H        13.07384145059974    0.76425487825072    3.43085563174676
C        12.91657426070267   -1.35961786044680    3.42512904758877
H        13.59125985303951   -1.47952466425821    2.58873935865499
C        12.34160745590495   -2.47129414048267    4.01593962350935
H        12.56506108834203   -3.46140382066804    3.64425623184737
C        11.48175176265108   -2.30648977303564    5.08817835696591
H        11.03532177434417   -3.17119335515220    5.55986971774922
C        11.18897048890117   -1.03685612475344    5.55186525569566
H        10.51573330803334   -0.91317110165962    6.38836576388416
C        10.33212107312321    1.65561502387926    7.18848647303910
C         8.94734893560521    1.72681829189501    7.26287424323793
H         8.38190755562884    1.87748670762504    6.35087876099285
C         8.28507282191565    1.60022940154412    8.47028835985500
H         7.20530502337073    1.65494162616164    8.50734382852169
C         9.00738371787048    1.40230397531509    9.63513661229698
H         8.49564890002729    1.30503342726165   10.58263036702377
C        10.38898210084149    1.32735889539223    9.57922044858401
H        10.95747835826540    1.16986409496782   10.48553531838192
C        11.03970131767924    1.45255303599304    8.36520662240956
H        12.11792477443467    1.39359620123034    8.32574280936655

