121
CSD_code = JIYPIR | q = 1 | S = 0 | Stoichiometry = C63H50ClN2P4Ru(1+) | MND = 6
Ru       10.99445131607584   13.40812689117216    7.62538689732312
Cl       12.72441322966053   13.40725960509813    6.00928505017709
P        10.12334589212333   14.77835538793461    5.96251521578101
C         8.45686507251033   15.49740646817190    5.92091232741422
C         8.01498804414858   16.10087317875432    4.74611928440900
H         8.67209008923763   16.14717675842079    3.88697337159318
C         6.74557336304126   16.64237280479276    4.69121119605038
H         6.39883534405103   17.11088221051434    3.78257711641337
C         5.91881369790603   16.58878125016668    5.80417488245961
H         4.92899800510336   17.01657344390113    5.75769071139329
C         6.36034776459460   15.99398023396623    6.97406408818628
H         5.71688262695347   15.96086786270468    7.84102903621461
C         7.63075252172941   15.44679953733296    7.03479657495730
H         7.99466440521405   14.97670269809946    7.93989328630693
C        11.13383117942748   16.13787237663536    5.32179723110829
C        11.13688977441701   17.27656678662843    6.12620203998244
H        10.53043814596971   17.28688416577813    7.02600601024622
C        11.89917720378340   18.37147034824669    5.77367492016265
H        11.89294526159382   19.25617903202297    6.39182800213100
C        12.67596278481582   18.32755567745142    4.62604934116192
H        13.27737058426969   19.18030751590333    4.35093250074992
C        12.68345230817217   17.19297840405949    3.83273709594989
H        13.29205536570188   17.16059036886292    2.94157521615776
C        11.91419413534345   16.09431400009281    4.17490636263457
H        11.93470610541471   15.21309918089906    3.55047245132719
C         9.97163587556702   13.40684230701870    4.70967002416800
H        10.79644775670607   13.40688037845780    3.99314946383449
H         9.01028550598799   13.40689076112903    4.18683117374860
P        12.38434292180357   12.01308865071768    8.90585286140602
C        13.41529674401972   10.61971642170672    8.35657790314585
C        13.21506644809399    9.34982661808747    8.89398579768740
H        12.47016641114223    9.19804044421751    9.66210558875214
C        13.97606710483499    8.28410909386194    8.45173386895676
H        13.82532600627228    7.30588654996709    8.88331133459545
C        14.92588346518680    8.46780843841610    7.46034473914342
H        15.51683675954602    7.63275087072743    7.11658485093254
C        15.11471362793451    9.72455902273840    6.91027526508544
H        15.84940786326899    9.87178452804538    6.13321908968518
C        14.36554167595797   10.79783882399074    7.35344156675642
H        14.51628456406497   11.76803970008943    6.90451619466991
C        11.76156036229864   11.44492235281245   10.51356153471405
C        10.48715160592136   10.88150082029050   10.52209646213694
H         9.92949997836771   10.83253075893964    9.59355586766172
C         9.94933667764486   10.38909226108901   11.69609898795071
H         8.96040706090517    9.95575064888242   11.69850073946848
C        10.68386601973017   10.45189954351501   12.86979458465609
H        10.26434670031629   10.07313273914322   13.78909588687167
C        11.95979504026507   10.99209687157123   12.86194730603868
H        12.53733435202479   11.02508283560511   13.77354098358852
C        12.50384249952394   11.48406959895778   11.68834759926988
H        13.50970348770900   11.87889344957714   11.69182865765753
C        13.55681977677055   13.40684600015611    9.27542493070063
H        14.35826526364206   13.40689647621440    8.52842832918977
H        13.99842962018259   13.40686069952624   10.27356969496431
N         4.57920724033692   13.40685866388756   12.29614619000867
N         6.92590309653385   13.40683389805819   14.32997157690547
C         9.59809155931448   13.40747931918853    8.92039667016155
C         8.77971685208884   13.40641183003465    9.85661868366993
C         7.87906915186222   13.40689848413947   10.86101326014979
C         6.43428189587970   13.40701945303986   10.75318889168003
C         5.87123906977971   13.40694607281718   12.05686581360894
C         6.97729085618592   13.40693604090882   13.01675152471480
C         8.18671683122680   13.40700099585600   12.27571288560972
C         9.39279258383061   13.40697797227355   12.95531536202737
H        10.33400680134058   13.40703633787332   12.42508265756779
C         9.32888294549434   13.40690304377919   14.34234882046234
H        10.23245405064824   13.40688632685712   14.93145326050576
C         8.08777067130957   13.40681275168489   14.97048150862491
H         8.01496258343361   13.40671563842783   16.04947331404855
C         5.58484932573693   13.40703388496378    9.65783986689195
H         5.96582573897862   13.40710202443662    8.64590558222917
C         4.22079464266951   13.40698216467833    9.92080207933014
H         3.50716437485152   13.40700420439878    9.11156985659125
C         3.77710947132542   13.40686565378055   11.23932897623589
H         2.71982896644090   13.40677525648398   11.46586155761312
P        10.12351329373243   12.03554978968848    5.96278290698944
C         8.45696302167397   11.31661529065407    5.92101065435670
C         8.01509732178006   10.71298875998206    4.74627557107750
H         8.67224104663307   10.66650777877406    3.88716893884136
C         6.74569150600145   10.17143724685175    4.69141161655488
H         6.39899999101304    9.70269388917355    3.78287674170968
C         5.91889782510041   10.22516995592865    5.80434248927668
H         4.92909643567485    9.79733236344236    5.75790237859260
C         6.36038082563691   10.82018197267706    6.97414203421545
H         5.71685531618627   10.85346837940573    7.84105733384122
C         7.63077547636786   11.36740143602539    7.03483130884370
H         7.99463897445285   11.83765104693374    7.93986587005393
C        11.13376845762692   10.67603910346463    5.32173153582630
C        11.13676819460317    9.53729766789746    6.12604253389767
H        10.53036700585260    9.52698996449560    7.02588133122862
C        11.89909593675083    8.44243993025839    5.77349690205777
H        11.89287462594521    7.55771674598306    6.39162432121965
C        12.67602068959408    8.48646723264948    4.62596837045091
H        13.27738787967784    7.63371320943362    4.35077347161621
C        12.68359508387434    9.62111752709649    3.83277065956664
H        13.29214369381548    9.65353970440598    2.94156363901932
C        11.91420937798954   10.71970533750543    4.17490219777345
H        11.93477192905322   11.60097323051225    3.55053810643564
P        12.38460890923995   14.80085221686172    8.90608709962812
C        13.41541624783671   16.19426945622059    8.35664266119300
C        13.21526766108899   17.46414201232700    8.89412295280245
H        12.47038727154595   17.61593525289755    9.66225954928671
C        13.97634311449106   18.52983079936935    8.45193668538414
H        13.82568768376877   19.50803057201753    8.88359699729392
C        14.92611495199166   18.34612800297105    7.46050721547302
H        15.51711804350539   19.18116786377458    7.11679016980426
C        15.11482264479105   17.08940118590652    6.91033010364796
H        15.84949755276370   16.94217551339422    6.13325694274226
C        14.36555141890035   16.01614910507231    7.35340755037986
H        14.51615891865100   15.04596957266416    6.90437376878613
C        11.76158871735565   15.36913630645478   10.51364010351164
C        10.48717556567778   15.93257346849148   10.52204815282533
H         9.92957993567856   15.98151869792083    9.59347107032942
C         9.94928972788919   16.42504917257871   11.69598756244031
H         8.96035934707016   16.85839187008451   11.69831078869385
C        10.68377441018974   16.36232496048854   12.86971448944843
H        10.26421972866802   16.74115924975081   13.78896871837253
C        11.95971233552195   15.82214144816001   12.86196360392355
H        12.53722318154900   15.78924116493588   13.77357438860934
C        12.50381250158350   15.33007093853862   11.68844247203929
H        13.50967211497609   14.93524973527596   11.69197620355449

