61
CSD_code = JIYRIS | q = 0 | S = 0 | Stoichiometry = C17H39ClOP2Pd | MND = 4
Cl        0.73464408498014    0.06139682158097    2.39766296630837
Pd       -0.16556353403570    2.06353831104512    3.35128696552678
P        -2.07907305057304    0.97184593875098    3.97634029510285
P         1.52312581629194    3.05941042672379    2.15759021693994
O        -1.53337544210271    4.45938138639428    3.62069480556686
C        -3.61477185327667    1.96229436580058    4.26299034561198
C        -4.91612345830669    1.17730380134811    4.36061127294831
C        -2.02468973946677   -0.19187857966995    5.41045498924770
C        -0.60528158109769   -0.72189576850525    5.58057732090211
C        -2.54723542354112   -0.14839382437583    2.59497240212567
C        -2.54771598610506    0.63002545598193    1.28511551916047
C         1.95152210445344    4.85795059016679    2.34135441900968
C         2.65275594370824    5.51831670986808    1.16166845483018
C         3.16523702098179    2.23680248849646    2.02232015716528
C         3.71722633500990    1.88806451498343    3.39887832863001
C         0.88146914401352    2.95074846785654    0.43565906249591
C        -0.47251191995506    3.65223267349843    0.34614119950323
C        -0.74150324868084    3.73524308166366    4.16750255678467
C        -0.15185270356384    4.04986576961333    5.55445931036227
C        -1.19628770716049    3.58462040858477    6.57722241477697
C         0.06728090176454    5.55793230430799    5.69374153506131
C         1.15444381712394    3.28423276071922    5.78675388745089
H        -3.45296291181644    2.52312212825597    5.18650765667534
H        -3.66899679168198    2.69947795845013    3.45578624821073
H        -5.72424113115399    1.84618641082541    4.65168256513103
H        -4.84369943253128    0.38995035933508    5.10796846562109
H        -5.18335018948358    0.72989112476290    3.40694240795909
H        -2.34427150678823    0.34071997691145    6.31187211054014
H        -2.72201682378916   -1.01446380390509    5.22970006772044
H        -0.53243856121324   -1.38393162162822    6.44176510970142
H         0.09177655872678    0.11067288953874    5.71846634573237
H        -0.29229653378170   -1.26731140473387    4.69189773937075
H        -1.78045311689721   -0.92697683449072    2.55032251701534
H        -3.51445411614066   -0.61599081254539    2.79845920823568
H        -2.77670572861012   -0.02363558351019    0.44553699307325
H        -1.54750969916525    1.04963366664216    1.13148942087934
H        -3.27590112580386    1.44102161629335    1.30442562625517
H         1.01528247738523    5.38075303759823    2.55667520917861
H         2.58317424199184    4.93773020966957    3.23179114721373
H         2.94740898605375    6.53096757137692    1.43278515700795
H         1.99605948115915    5.58210814825467    0.29830582187151
H         3.55030369872151    4.97489374986080    0.87435794309942
H         3.00596811066048    1.31824441618109    1.45366773354606
H         3.85400223758379    2.88060609543532    1.46897774612341
H         4.63870122466136    1.31646619735790    3.30861529590159
H         2.98682644582584    1.27773927918306    3.93341193549187
H         3.92519215416936    2.78357579134351    3.98340132170839
H         1.60268353757064    3.36173263842393   -0.27651002458485
H         0.76527090424443    1.88056243381449    0.22963289675485
H        -0.97294387601591    3.41283702193701   -0.59084397267352
H        -0.36045261644031    4.73326777777762    0.40907257272562
H        -1.11420531593270    3.33330018061625    1.18021312807675
H        -0.84420656831982    3.78220801330303    7.58828120804484
H        -1.36824579722936    2.51264243927273    6.47132274040814
H        -2.13493758145130    4.11426218398663    6.42788125718647
H         0.85245362105955    5.89624782097800    5.02144483472822
H         0.35278665015791    5.80665572531032    6.71401195468433
H        -0.84854352245736    6.08900942530667    5.44414695068068
H         1.94886063586294    3.68791715467755    5.15861997660747
H         1.02277909296980    2.21302207513949    5.54964808821939
H         1.46398336666588    3.37024643834836    6.82706817099809

