72
CSD_code = JIYRAL | q = 0 | S = 0 | Stoichiometry = C29H33BBrCl2FeN3O2 | MND = 5
Br        2.89371817979651   10.09002451972740   -0.58527362968943
Fe        5.88639410198221    4.03874933861098    2.37152863319894
Cl        4.55984644261386    3.75957917290974    3.96086358328975
Cl        6.93672695562258    5.78069445754422    2.11754485288572
O        11.56641823447753    6.36788753953620    7.31501021754936
O        10.06338944820423    5.64223475944182    8.85072929364144
N         4.53275200246409    4.45708765172721    0.95131781956638
N         5.73702733106251    2.43642706694947    1.65851925480568
N         7.33450902364694    3.15084335271762    3.35864559991976
C         4.12554368185325    3.39367826552343    0.31180332323693
C         4.80196813194442    2.19091462362733    0.69107856783753
C         4.62668228812731    0.91263767986269    0.17348488235907
H         3.87938479088095    0.73826361750997   -0.58356564354740
C         5.41685419795806   -0.12762537816575    0.64035829571531
H         5.28981853927135   -1.12375746914775    0.24747643747689
C         6.36888957985246    0.12054817223333    1.61855906507697
H         6.98883402809251   -0.67540879239203    1.99805425869220
C         6.51533508338843    1.40892396806118    2.11858587426385
C         7.41377461705831    1.86703595341294    3.13499929013801
C         3.07272545720029    3.39788926094857   -0.75284969015128
H         2.71618033565965    4.40830322796247   -0.93655270295188
H         2.23298239042491    2.77760644650500   -0.44160861212177
H         3.46806695824032    2.98679041083186   -1.68072577162491
C         8.34041445507796    0.93959600805022    3.85471745602424
H         9.02486736201246    1.49894427829595    4.48726662318697
H         8.91230387827172    0.35148344114468    3.13917927186673
H         7.76698569523652    0.25457103354526    4.47827509746943
C         4.09347511346631    5.74025491421626    0.57454570380000
C         4.79297055891861    6.40313441713410   -0.44427384861825
C         4.42951523433898    7.69823253672124   -0.77659888864782
H         4.96403569706751    8.22589451814573   -1.55148572066878
C         3.38349762052106    8.30979718213809   -0.11279491154691
C         2.67050080566643    7.64952206167722    0.86872744847467
H         1.84362931938918    8.13848176498808    1.36082877313329
C         3.01381823278533    6.35267637907670    1.22168317434527
C         5.90859443135466    5.71823082742014   -1.17021456398617
H         5.53715665179936    4.85375039130855   -1.72046832500968
H         6.65338762729978    5.36845607947262   -0.45628307197212
H         6.38218744047223    6.39996882071085   -1.87074723306388
C         2.22128322382253    5.61463189557251    2.25109101956833
H         2.86775104083521    5.26403967024980    3.05308895621050
H         1.75122485437486    4.73550904223975    1.81070881320795
H         1.44751217598148    6.25110479121392    2.67091166255303
C         8.08928678517734    3.76152220490865    4.37339476399123
C         9.24610719444648    4.46921561052305    4.05741843137059
H         9.56216572917154    4.52938944284016    3.02703462330503
C         9.96829285456653    5.08334578202048    5.06079139646990
H        10.86820866358515    5.62787286897274    4.81928637281234
C         9.56331996830265    5.01591773076854    6.39458472193593
C         8.39026410529470    4.31888692967777    6.68725511054639
H         8.05919391154894    4.26829282636815    7.71320576839708
C         7.65892969832986    3.69485170588094    5.69707299045797
H         6.74457418423506    3.16792312986871    5.92616995380650
C        11.98484155137378    6.96297899251654    8.54395281958459
C        11.13152666084353    6.19575381201345    9.61965128819208
C        11.63761075553686    8.45417919764316    8.45742296355123
H        11.96230760084343    8.98495432985740    9.34723977369244
H        10.56724257797009    8.58476332111906    8.31989824896308
H        12.14046380799623    8.87589534136146    7.59017386025075
C        13.49692388982030    6.80976412319789    8.69244472486262
H        13.80026987439328    5.77370635078777    8.58151362865279
H        13.81862912768529    7.18061867297027    9.66174991532994
H        13.98715005409784    7.38904265958808    7.91399546540037
C        10.55789068529500    7.07074045973345   10.73155231299038
H         9.87717595877518    7.81602370197337   10.33336712989834
H        11.36035051541105    7.56381880107989   11.27339584298007
H        10.00146248757501    6.44201157909589   11.42224716094535
C        11.88244864479766    5.01469336072559   10.24789610465073
H        11.18068037381134    4.43982095113167   10.84785443704562
H        12.69267019177027    5.35799356101699   10.88387588782432
H        12.27424961701379    4.36131695178109    9.47225280835688
B        10.40172931181390    5.69009770135820    7.52946085784175

