60
CSD_code = JIYSOZ | q = 1 | S = 0 | Stoichiometry = C27H26MnN4O2(1+) | MND = 6
Mn        5.84610451441415    8.25599845900168    9.44528013624042
O         5.49507447221952    9.95319753158704    9.93901308942342
O         6.30546552618272    8.47097561928299    7.71526950535843
N         5.30391405694767    7.74563989816562   11.38549802639544
N         6.13166273809409    6.22587289654254    9.10542899218798
N         7.80349160053166    8.53867823740333    9.96852895793579
N         3.93821305352137    8.11324745862117    8.84376689698469
C         4.40758717067643    8.44430910017316   12.01040816647976
C         5.88487419971946    6.63975012899849   12.12857955775494
C         5.78329839395716    5.30805020202333   11.38788084097302
C         6.61694545783031    5.29241912545800   10.10831093808392
C         5.88598597350809    5.72718222912545    7.93365484436574
C         3.84719312939380    9.68707981722604   11.59597249677591
C         4.46847263481899   10.43802255919022   10.54673615108305
C         3.98139241052597   11.73517702163583   10.27688043213105
C         2.91169748169794   12.24214045875714   10.96976168599883
C         2.29590127964760   11.50191096540285   11.98373536989364
C         2.77328924677843   10.25608158039444   12.30156118873808
C         5.61185199511771    6.44819486200473    6.73555909212944
C         5.88020798777067    7.85322694586969    6.66843194686497
C         5.75250314945126    8.49730974054541    5.41881214600638
C         5.33535771690035    7.80463712721783    4.31085910624989
C         5.05725939273707    6.43607609482125    4.38120219815034
C         5.21570323153525    5.77053624885323    5.56990594059767
C         8.79596082714943    8.09915296546736    9.19049854039446
C        10.12760594601379    8.40528150634009    9.41138219348882
C        10.46421268864616    9.20799297534772   10.48972317498540
C         9.44010845440605    9.66429945795057   11.30425521671327
C         8.13574372404186    9.30832372857906   11.00815298642561
C         3.47653918990928    9.07094486483067    8.03047958664941
C         2.18692617404004    9.08970676250773    7.53250002490320
C         1.31182937230352    8.07437088143775    7.88240377682110
C         1.78077553342730    7.07915213897759    8.72658199656782
C         3.08535463172811    7.13874305448803    9.17717287170996
H         4.07554852941572    8.09771496938977   12.99294046710688
H         5.39557540791627    6.54135337834394   13.10688095500229
H         6.94458224283212    6.86656869976968   12.30093137620455
H         4.73902891262780    5.08956754600960   11.15524486312502
H         6.15044321047653    4.51988358500103   12.04650388786853
H         6.62781536934060    4.27174622479849    9.70293239590142
H         7.64918316077604    5.56908745819399   10.35752288055132
H         5.95283668087319    4.64275908045944    7.80980184301968
H         4.46689152015186   12.30556344980198    9.49934022151213
H         2.54289344975012   13.22840619217701   10.73232824920587
H         1.45936896654584   11.91898750340221   12.52056026342574
H         2.31897234850068    9.68602909306920   13.09893435521904
H         5.97744365448844    9.55205085164292    5.36863122673492
H         5.22466277294891    8.32216835488460    3.37012778996081
H         4.73474680345239    5.90785111543025    3.49865848157703
H         5.02607733104317    4.70860077521733    5.62896897902594
H         8.51515531482887    7.47760848600499    8.34990073049313
H        10.88341095770862    8.02201658094978    8.74472559626132
H        11.49153197391886    9.47003655519136   10.68845096305313
H         9.64410796363058   10.29168027427092   12.15710246147787
H         7.32328882110843    9.66050168210769   11.63089731537170
H         4.16780123935553    9.86050467830236    7.76291403436880
H         1.87902371473927    9.89073619312525    6.88013323407220
H         0.29960760862294    8.05804368942030    7.51127487398969
H         1.14455998432688    6.26464060057858    9.03367480417934
H         3.46663870498115    6.37131033822472    9.83582967583434

