37
CSD_code = JIYSEP | q = 0 | S = 0 | Stoichiometry = C16H10N6O4W | MND = 6
W        11.19413673119074   -6.42622344504566    0.25143495638642
C        11.19924830365248   -4.99321027169044   -1.10804814570971
O        11.21811167381987   -4.14716404292396   -1.88344210246449
C        10.13542069498202   -7.52857308755336   -1.00078655339265
O         9.51114399231403   -8.18421658583701   -1.70601119629857
C         9.50059102817637   -5.68147638790292    1.00022570266424
O         8.51932539664903   -5.24404506258002    1.39153788208482
C        12.87023186921989   -7.14576556038290   -0.56555680165276
O        13.80278149590661   -7.53765758396389   -1.09465848566228
N        12.32468914442498   -5.42544629207774    1.79315873008006
C        12.45712933490752   -6.09994947153019    2.95937842355754
C        13.14208438171516   -5.55726692692340    4.05121041652399
C        13.69744380526146   -4.29917963106960    3.94117252026053
C        13.56076791821457   -3.61432343674710    2.73806138458276
C        12.87177198217692   -4.21740763720134    1.70224878792079
N        11.30712708774183   -7.80957548104776    1.85124878696536
C        11.86635530997207   -7.42097187673057    2.95514747610653
N        11.86590094242890   -8.26703207496277    4.07269502120131
N        10.72207972533676   -9.06315872934320    4.19170793001088
C        10.22276372927799   -9.46681526061460    3.09014410935129
N        10.77294758755185   -9.08556494960125    1.86020246386097
N         8.49652154633545  -10.46531882798610    1.83283597787286
C         9.02757518781360  -10.30126878732139    3.04424366231219
C         8.48946006349458  -10.88189272943773    4.19184677126050
C         7.35338273013782  -11.65931876567265    4.05705093761254
C         6.79978598485423  -11.82943863735741    2.79584711617987
C         7.41427533300694  -11.20835156188529    1.71710906432429
H        13.24375104925905   -6.11711122810292    4.96794303578391
H        14.22887428259750   -3.85958473409222    4.77087430641930
H        13.98206075642083   -2.63077486742064    2.60865268610895
H        12.74697185673680   -3.71061781497386    0.75372878719423
H        12.08034842298504   -7.84204182511056    4.96567010751575
H        10.17513994076482   -9.28490081847759    1.06045613497371
H         8.96600948633334  -10.71460737347839    5.14342696907046
H         6.90442609460135  -12.12678348651865    4.92119433412301
H         5.91408213459695  -12.42759265696737    2.65166514465335
H         7.02458299514148  -11.30577208946898    0.71268365821797

