70
CSD_code = JIYTUH | q = 0 | S = 0 | Stoichiometry = C36H25F4N2OOsP | MND = 6
Os        3.20444586238548    3.24613810095722    0.90446165031468
P         4.38534092757624    4.14723872669194   -0.97562782170611
O         4.71429778222974    0.64075543451399    1.15072714961450
N         2.20332344822951    5.06972617427890    1.03736850421868
N         1.53343339834313    2.29029240426513   -0.14802684022245
C         4.14078298385191    1.63767463443237    1.01635607323587
C         4.48588256003571    4.29874386042234    2.09744736726589
C         5.70195002220497    3.87190315239358    2.64236097087884
H         6.06355220686751    2.87135022429241    2.45536788981178
C         6.46116139154219    4.71145766964531    3.42761922851858
C         6.07185285190745    6.01233433885970    3.70577010139327
H         6.67610936581400    6.66614782962234    4.31185461090477
C         4.87330535418346    6.44195746817185    3.17948476266239
C         4.05910463405625    5.62442694443113    2.39055021665037
C         2.77696397093666    6.01583994950505    1.81792828601641
C         2.14573858138546    7.24669565199727    2.01975344059069
H         2.59143763960882    7.99343348079276    2.65168947267274
C         0.93756742555526    7.51238149206195    1.40958099063713
H         0.44573857699948    8.46097455892887    1.56157541935290
C         0.36988503885159    6.53932556938925    0.60016900091422
H        -0.56967691550600    6.70054297905951    0.09657499633276
C         1.03959562972409    5.34198727742758    0.45422007240223
H         0.61399934630567    4.56822037627247   -0.17283802112888
C         1.98098228729052    2.67760060237166    2.46500754184070
C         2.21153690286138    2.90293340448037    3.82125705116094
H         3.16717998997834    3.27398935153485    4.16078963271201
C         1.22927445717529    2.65543342848842    4.75810047172616
C        -0.02512194287877    2.19429318567800    4.40060725110909
H        -0.79730849553084    2.02649894453921    5.13274001543985
C        -0.25589061341375    1.95365988132219    3.06329215675462
C         0.71562080085092    2.16115987755563    2.08040713476982
C         0.53169170050279    1.87172683023452    0.65762847386716
C        -0.56321716921963    1.18661740721987    0.12097314946403
H        -1.35019173935437    0.82448619957643    0.75755384531129
C        -0.63893799007426    0.95839733582400   -1.23879488600592
H        -1.48287277492365    0.42995530061453   -1.65574553755398
C         0.38639086638678    1.41601773369557   -2.05302957017035
H         0.37202646665378    1.26604728238709   -3.12075479712675
C         1.44771166107311    2.06677555213712   -1.45419702844514
H         2.27450609560447    2.42060329421575   -2.05695854825551
C         6.14346124818724    4.62597140144494   -0.70939434291988
H         6.52740152754414    5.16508392623412   -1.57581460627851
H         6.70990679453482    3.70548395028342   -0.56856471738761
H         6.24424344721287    5.22648099750874    0.19176560567490
C         4.65548133115167    3.24687465645136   -2.54889736099949
C         4.85295374988438    3.89945481149473   -3.76062943434767
H         4.79746503876118    4.97841730125575   -3.80914239751932
C         5.11578189189661    3.16798915223458   -4.90513753903199
H         5.26409248273947    3.67912302459587   -5.84517895491996
C         5.19374823886126    1.78581753847341   -4.84781099092931
H         5.39920240461700    1.21992750928031   -5.74421873944881
C         5.01127594010122    1.13150283969251   -3.64034385627521
H         5.07762672797411    0.05488732516146   -3.59109155887094
C         4.74204747445608    1.85949272445872   -2.49550067576134
H         4.59159714459156    1.36065120178266   -1.54614974270671
C         3.63755995195108    5.70963421753036   -1.54597960272472
C         2.53222597200313    5.66733046070889   -2.39326828485372
H         2.21102878981735    4.71982838631327   -2.80622212198959
C         1.85269914463430    6.82552345545202   -2.71907118656480
H         1.00387109074741    6.78205439021901   -3.38611162057500
C         2.25307730675796    8.03885708684158   -2.18312339624079
H         1.71759272640471    8.94305004006361   -2.43105273618394
C         3.33820185504834    8.08746197198794   -1.32452685063313
H         3.64810593250086    9.02972071098814   -0.89720771239465
C         4.02537072721480    6.93070002567581   -1.00329844839455
H         4.86279880536456    6.97849727637011   -0.32278569767008
F         7.63356489991882    4.27340862950587    3.93354978902394
F         4.53195192890558    7.72603268993174    3.45386400365098
F         1.47979599699397    2.88700551852280    6.06328431120274
F        -1.50480315591713    1.52799287127182    2.74611499098458

