33
CSD_code = JIYTOB | q = 0 | S = 0 | Stoichiometry = C12H17Cl2NRu | MND = 9
Ru       -1.36075041021606    0.26827595620621    9.45974561529282
Cl        0.23111498602285   -0.55439815978891    7.94310903300391
Cl        0.35463471658571    1.60296830957090   10.33738077219369
C        -2.91921060128394   -1.08166381705823    9.77260110206320
N        -1.61871572164561    1.75667604799843    8.29238349943501
C        -2.96210774916620   -1.04028791955263    8.38689617058099
C        -1.48225504244693    2.63426265955301    7.55812028854343
C        -1.77347365195703   -1.71705286680061   10.43804492120136
C        -3.29868088072304    0.10003356096266   10.56484019557849
C        -2.32666759557421    0.24581948182087   11.55882931820925
C        -1.32326334933963    3.72683394825681    6.64735943150930
H        -1.91030589985661    3.54743475981208    5.74708622187920
H        -0.26963640859283    3.80787743173182    6.37905999132564
H        -1.64762950915989    4.65513156675453    7.11712071607178
C        -2.24882271903626    1.29452558802296   12.61502739564796
H        -3.06370594216922    2.00762320209253   12.52277410121525
H        -1.30018565384401    1.82723658816572   12.52470062902093
H        -2.28726870091755    0.83631320891888   13.60343734968474
C        -0.25936732131283   -1.05177363940453   12.43378383204136
H        -0.63804905080562   -1.09738207751501   13.45539986375500
H         0.42117822020470   -0.20143839484032   12.36072408923914
H         0.29858443788180   -1.95845093111997   12.21472439078815
C        -4.55031754001832    0.89804742640243   10.38845142819374
H        -5.29262867436126    0.58154802650648   11.12438772273521
H        -4.97156738430625    0.74763474527049    9.39669655067997
H        -4.36203268763424    1.96100846217465   10.52886774656756
C        -1.38636836550914   -0.86859428908879   11.47443283804274
C        -1.17385740899445   -3.02421352802073   10.02916407464874
H        -0.71369844205154   -3.51799042431733   10.88301427468942
H        -0.40314441277509   -2.86834968101554    9.26999440091623
H        -1.93918583699498   -3.67669201284753    9.61197169987091
H        -2.52293051448549   -1.84255140017251    7.80888050186244
H        -3.72508488548932   -0.46351182868371    7.87758983353248

