105
CSD_code = JIYVIX | q = 0 | S = 0 | Stoichiometry = C38H58NO3S2Si2Y | MND = 6
Y         5.31103605123192    1.68045081655204   14.26668028263698
S         6.19528479333351    0.94243696113569   16.84619863500970
S         2.58660939934925    0.49336640946855   14.23924686346635
Si        6.88595740898583    4.57053599659464   13.94527883580749
H         5.55317465584442    4.95607149812532   13.39209096671511
Si        8.62156175614225    2.14704306315583   13.93519705128806
H         9.46261470868856    2.70688118096126   15.02665742275185
O         4.20813807748692    2.71472398663903   15.64149675826915
O         5.24670424252756   -0.01406358604771   13.14995481278230
O         4.06238168235194    2.75678237401153   12.39935559385088
N         7.05988239366946    2.86064954759052   13.82231524276681
C         4.44134902397427    3.04092273657967   16.88906212421819
C         5.40495325328347    2.33487221290018   17.63739925945437
C         5.74275576113132    2.65306967761375   18.94131109311072
H         6.50892910488782    2.08038073563334   19.44165069129083
C         5.09337987515752    3.69305684823087   19.57394011266546
C         4.09208896478996    4.36668269399832   18.87380106436242
H         3.57973728774068    5.15751598541195   19.39803513913338
C         3.73727765293219    4.07505168700870   17.57142003794721
C         5.42991516404086    4.09249191411476   20.97997208200302
H         6.20245592575834    3.44707552632533   21.38955633637319
H         4.54891906230478    4.02988649692441   21.61809044686440
H         5.78816416079736    5.12113863767783   21.00706441375378
C         2.62286308489131    4.82241558052974   16.85058934693749
C         1.91930145957050    5.85130669274267   17.74155428846688
H         1.12413414318114    6.32934823841803   17.17248584316675
H         2.60770311401368    6.62668556033544   18.06922551524915
H         1.47147306456149    5.37816134162085   18.61256722137437
C         3.21897196309326    5.56301539920243   15.64721923632288
H         3.74426475230087    4.86599540925345   15.00048868243441
H         3.93007530015402    6.31487856820310   15.98267457582562
H         2.43160987747687    6.05731065167443   15.08000852983557
C         1.56859822851657    3.81085416755494   16.37740216043967
H         0.76988945390054    4.32130555830231   15.84247946775721
H         1.13608485727364    3.29422423194648   17.23247853039392
H         2.01437576623843    3.07366343744206   15.71518765097464
C         4.81961021533253   -0.29207513292960   17.10316272538318
H         4.94715736602078   -0.68087318702628   18.11661864077633
H         3.89119007723433    0.27469052358380   17.04381840687157
C         4.91690950679651   -1.39488677622875   16.09560252313906
C         3.86083814728315   -1.76082656268748   15.25213479202894
C         4.04201006451732   -2.82004364909617   14.36551746930097
H         3.23002956188430   -3.09693682086148   13.70815384812333
C         5.23203858182003   -3.51805170630332   14.31442279741943
H         5.34430732525750   -4.34118786232659   13.62554245861768
C         6.27717864277080   -3.15504051755148   15.14665187453209
H         7.21583533970069   -3.68624084986307   15.10731900141814
C         6.11358576810430   -2.10445888881450   16.02769650643721
H         6.92300368469228   -1.81411808527060   16.68236092012565
C         2.54400539424788   -1.06329023516771   15.24884218454417
H         2.21566511190994   -0.74618395891297   16.23718638005536
H         1.77370557068218   -1.68727027999655   14.79629219378808
C         2.95854352858202   -0.20484002431042   12.63617997836492
C         4.31677658829714   -0.36000837064126   12.29182054506168
C         4.59586323075813   -0.91816822606023   11.01044178069206
C         3.53222387268182   -1.24661717296774   10.19144805244158
H         3.72301454333306   -1.66587567578097    9.21634277527960
C         2.19500868219418   -1.06691338961056   10.54576884133417
C         1.91593524840983   -0.53874110161941   11.79011760670522
H         0.89828629299858   -0.38058256423552   12.11725852870248
C         1.10244777987547   -1.45380707134586    9.59293045868087
H         1.09220637727959   -2.53355499913223    9.44335560211424
H         1.25598515418883   -0.98644665112018    8.62104006066721
H         0.13096114801468   -1.15090551467075    9.97545412586311
C         6.04009287385794   -1.15382246382196   10.58288503902237
C         6.68824459711722   -2.13503863784036   11.56706285848388
H         6.62502669466946   -1.75061767234811   12.57981964778647
H         7.73578204154580   -2.28641402349683   11.31465901156007
H         6.17827886968035   -3.09545506900330   11.52737254928039
C         6.81463477520275    0.17099555217837   10.59184306024880
H         6.42570162298020    0.84240067805888    9.82764974125188
H         7.86536868749609   -0.01748924700419   10.38049484131481
H         6.74207569859373    0.65720589190043   11.56309784591754
C         6.15773387197618   -1.75202496487222    9.17622343687061
H         5.67117902078496   -2.72293126323054    9.11683911717269
H         7.21048382522080   -1.89098963304610    8.93825279244755
H         5.73001854643161   -1.09075820595615    8.42566934973098
C         7.02572935524231    5.22104923199476   15.73405099543071
H         6.27323789144091    4.78267568932224   16.38200148268075
H         6.90920469099071    6.29956008400194   15.77463051999482
H         7.99823304532360    4.97801038220913   16.15222770379776
C         8.15839335911002    5.55073030216324   12.92437829636929
H         9.15456213181332    5.42143672912038   13.33149285240130
H         7.93118630660540    6.61126904771807   12.93830899652604
H         8.17956837326039    5.22989469323885   11.88889846483467
C         8.44379289841108    0.28109528157080   14.32295603046461
H         8.65866892657134    0.08277790546119   15.36874199637170
H         9.13106468151178   -0.31373626590803   13.73022576596616
H         7.43569761450963   -0.08298545175635   14.11763664374712
C         9.63677129512582    2.31424208625351   12.32650716368009
H         9.07112548294719    2.00942582876306   11.45179426079068
H        10.53348826942562    1.70481297434691   12.37251722930534
H         9.94631414675422    3.34115329583922   12.17382401158533
C         2.73327580930174    3.30927926231032   12.37476663410276
H         2.62846304871715    3.95110109142278   13.25411480907816
H         2.00257580569314    2.49490888995054   12.44276498268729
C         2.58713715242199    4.09338193703907   11.06573005157000
H         2.06965100089358    5.03788109335253   11.21494867877177
H         2.03642999870352    3.50539449998296   10.33089223319721
C         4.03485403270320    4.27722079599040   10.61543951568831
H         4.13427818874482    4.39492546338796    9.53924909635563
H         4.48857234267157    5.13246989059780   11.11615521642159
C         4.66707037803601    2.98868897084407   11.12419390321632
H         4.43082454340074    2.14821644587925   10.45441288843776
H         5.74666982757411    3.05902541641291   11.27775289126438

