131
CSD_code = JIYVIY | q = 0 | S = 0 | Stoichiometry = C56H65Br2N3O4Pd | MND = 4
Pd      -20.32530387134311   -6.60579849273925   -0.25911275447490
Br      -22.36372220496364   -5.66665279847580    0.74269692275829
Br      -18.32068265879527   -7.67959916732197   -1.17759241328142
N       -19.17579754998853   -5.46687201589183    0.96767564051970
C       -19.29760142105898   -5.37264928194376    2.28859567827926
C       -18.57528647866135   -4.46068560263251    3.03849245750133
C       -17.69844719377813   -3.60441075058562    2.39301485006197
C       -17.57287343502681   -3.70543016585738    1.01638534720329
C       -18.32464399005129   -4.65259509555447    0.34428781131875
H       -18.22834710297795   -4.77561812084715   -0.73219011126768
H       -16.89989472513842   -3.06458014744385    0.46829108070292
H       -17.12576233536524   -2.87697130692659    2.94764725061619
H       -18.70707143839682   -4.42351507922946    4.10781844903378
H       -20.00573799097476   -6.04068451543182    2.76470445763465
C       -21.37106854422365   -7.56952514856679   -1.59134885702291
N       -21.31791750917575   -7.21114106171223   -2.89358846925040
C       -20.52944253213111   -6.13221572316170   -3.35292073967628
C       -20.54234355678773   -4.92664552341400   -2.65477818954831
C       -19.68758530527519   -3.89576379379311   -3.02212672469582
C       -18.82776545652790   -4.07407200228876   -4.11000393508724
O       -17.94127715022714   -3.06978313469473   -4.45440067676897
C       -16.70584335771289   -3.15975392742881   -3.76240729576441
C       -15.83196392337081   -1.97460504027016   -4.15808636486883
C       -15.44954702662827   -2.01539427996547   -5.63214334152424
H       -14.83952588415449   -1.15298319011354   -5.88997548729923
H       -16.34429373697881   -2.00443890678440   -6.24883730957614
H       -14.88306203014842   -2.91763104155268   -5.85344317750534
H       -16.37843335082369   -1.05324088266868   -3.94791000632336
H       -14.93391141958678   -1.98978261507644   -3.53764020745661
H       -16.88259018368313   -3.14910919756750   -2.67611405144376
H       -16.20298624691303   -4.10591402275471   -4.01114396823172
C       -18.86758857772546   -5.25488587724218   -4.85229948019075
C       -19.70571487246184   -6.28536248607190   -4.45329577761902
H       -19.68841629312099   -7.22008653634974   -4.99191033854334
C       -18.07079842619260   -5.43757297599221   -6.11905798265462
C       -19.05090744752508   -5.76549439916724   -7.22162530595384
C       -20.06295594314741   -4.86299943542766   -7.57456912495161
O       -20.10816733727520   -3.59643604592984   -7.05224705358295
C       -19.09836945597242   -2.69712732625265   -7.46996217738834
C       -19.55982553548228   -1.81598682668170   -8.63434913068172
C       -18.51038408296390   -0.76544826809180   -8.97306004460540
H       -18.85469640169483   -0.12840629785513   -9.78440015257975
H       -18.30266317618426   -0.14036638748397   -8.10741934369514
H       -17.58021224754213   -1.23910390445732   -9.28148708665711
H       -20.49938535004064   -1.33659084023729   -8.35489094280078
H       -19.74291911735714   -2.44540293501771   -9.50959697144976
H       -18.87418973380218   -2.07966872168375   -6.59724516252713
H       -18.19195423802402   -3.23159767261688   -7.77854046401910
C       -21.11399018182263   -5.26767495174326   -8.40567973105179
C       -22.27258926275849   -4.32960302772375   -8.62493373369617
C       -23.03299277806904   -4.18897049370553   -7.32595303330899
C       -23.26788677515046   -2.94414618833971   -6.73266918657016
O       -22.92894038752336   -1.77947660546060   -7.40249327268978
C       -23.76406305870244   -1.45704852540185   -8.50253458194397
C       -24.92507000434830   -0.53987198208189   -8.10541160528866
C       -24.44098152849950    0.86347294383161   -7.76107391829656
C       -23.82863603455813   -2.87409684673757   -5.45548729567073
C       -24.20256818717512   -4.04705044802627   -4.81269285436927
C       -24.04509117624240   -5.27329576770472   -5.42619457415012
C       -23.45091992319712   -5.33797312560305   -6.67172419886933
H       -23.29796222945170   -6.29461061760583   -7.15025930417480
H       -24.36505023987785   -6.17798507847605   -4.92944949351878
H       -24.62769238744763   -3.98829297892056   -3.82117885630935
C       -23.99815402336573   -1.56163371554592   -4.72677710047208
C       -23.25619662713542   -1.65249021197246   -3.41713819607147
C       -21.86852515430320   -1.82716546662686   -3.40310989055614
O       -21.12800575914875   -1.75356097602133   -4.55923784007278
C       -20.97184365899382   -0.46155237568480   -5.11566211251676
C       -19.64983735427559    0.18551126309784   -4.69011756551140
C       -19.42185466332450    1.50465355999094   -5.41564708059540
H       -18.47048617422669    1.94288159740534   -5.12261180534033
H       -20.21280279808780    2.21316856291261   -5.17781278960984
H       -19.41491233011327    1.35254271691063   -6.49267429905192
H       -19.66987374432422    0.36144527598066   -3.61110011274700
H       -18.83736042180484   -0.51043096176723   -4.90766344868411
H       -21.79556666644201    0.19997033656817   -4.81986816290854
H       -20.99487398919247   -0.59541279736644   -6.19998305594667
C       -21.21398193182148   -2.17043673377934   -2.21704217944550
C       -19.76697075947460   -2.57987514695662   -2.28430814609141
H       -19.36850744828800   -2.67726187039455   -1.27018245921413
H       -19.18110735604748   -1.84071607774515   -2.82961673897708
C       -21.93632121177697   -2.24988998339157   -1.03609061373312
C       -23.29514669783366   -1.99453957775002   -1.02749353240814
C       -23.94904016778505   -1.72518837201978   -2.21612989065021
H       -25.02174092429319   -1.58981967142639   -2.21683693950664
H       -23.84860615653655   -2.05683268931100   -0.10342298783995
H       -21.43666108679442   -2.52383968111546   -0.11729531954474
H       -25.05828738775267   -1.38235262091299   -4.52657355972979
H       -23.62103263920192   -0.75816953971246   -5.35601320625203
H       -22.92315809587107   -4.72550955943155   -9.40995117120250
H       -21.89898021804198   -3.35216435016527   -8.92756555905851
C       -21.10128305620243   -6.54648035075364   -8.94139635774983
C       -20.06474937735870   -7.41771649410103   -8.65914516166403
C       -19.06314379589477   -7.03375922399884   -7.78597550754609
H       -18.28523060660786   -7.73656426964581   -7.52208459534757
H       -20.05408565755525   -8.40704109429815   -9.09196507853188
H       -21.90860483784596   -6.86051223886245   -9.58832314317162
H       -17.37109658431630   -6.26890300588235   -6.00099602379823
H       -17.50201861333355   -4.53100780117178   -6.31962213108114
H       -21.28252806587426   -4.74349491870748   -1.87506630620805
C       -22.02745524107904   -8.11913577086671   -3.65189906853822
C       -22.55097373023941   -9.05969459092038   -2.74600107698614
N       -22.12703518090621   -8.67401842614561   -1.49216109646558
C       -22.34103631752429   -9.37614057790022   -0.24798664740579
C       -21.12852082766759  -10.25025819252492    0.11641489196242
C       -20.85066044049953  -10.26389174018940    1.62003171650249
C       -20.22129904366149   -8.95272851254022    2.08073764147460
H       -20.04153048998404   -8.97116533220894    3.15386652591938
H       -20.89016221195831   -8.10964836106529    1.86184204693562
H       -19.26298821378102   -8.80200675173944    1.57491828730068
H       -21.77950721571650  -10.44691218643478    2.16573660801826
H       -20.16555844566645  -11.08426212348005    1.84245640216095
H       -21.28474053381663  -11.26701643093094   -0.24769987244236
H       -20.24271992932138   -9.85224889783821   -0.38838414219605
H       -23.24800197844769   -9.97580074733810   -0.34035797995698
H       -22.51036251266162   -8.62085378079539    0.52783323892634
C       -23.33066078893386  -10.11837466736039   -3.18449916470467
C       -23.57265190272506  -10.20498647761375   -4.54242629574687
C       -23.05852766236509   -9.26834295636551   -5.43718128121269
C       -22.27854509174781   -8.20998946142495   -5.01173094605199
H       -21.88623768828531   -7.48137280033415   -5.70195934884123
H       -23.27416694280509   -9.37371881785124   -6.48936627587163
H       -24.17482915959764  -11.01729805075088   -4.91961517774573
H       -23.73185272363194  -10.84745790248050   -2.49844677569421
H       -24.16119102885236   -2.37008577048292   -8.96193288356689
H       -23.12674259637594   -0.94433450050669   -9.23189523573348
H       -25.63023070553689   -0.49408655433976   -8.93776476897176
H       -25.44068873320682   -0.98083320787953   -7.25009201372365
H       -25.26038899192205    1.47284001040003   -7.38728998393857
H       -24.02484505198005    1.34734930465271   -8.64240272804682
H       -23.66450057568834    0.81894540184969   -7.00129821134733

