20
CSD_code = JIYWIX | q = -1 | S = 0 | Stoichiometry = C4H11Cl3NPt(1-) | MND = 4
Pt        2.40998613557198    4.22982000283353    8.00528975854790
Cl        1.05562748462698    2.44062846369865    7.74635203538230
Cl        1.14103889824996    5.58197137629707    6.58927953014435
Cl        3.74674358056313    3.07654566718485    9.48841468709986
N         3.61490426432923    6.00319491958124    8.19472242074876
C         4.93209290369388    6.09038332265741    7.54807714574748
C         5.25874105229949    7.56140995483965    7.25232726814773
C         4.86303593913635    5.29669541138014    6.24424336044964
C         5.97619069997237    5.49027789847350    8.48759095878936
H         2.95255762624633    6.62538785614714    7.71881941559266
H         3.68360592196884    6.26838418486333    9.17622464554933
H         5.25425666215290    8.14910325677404    8.16976721978653
H         6.24295810500029    7.64711660704299    6.79742633538612
H         4.52509089326846    7.98178087262225    6.56678589876181
H         5.81023793465663    5.33643833891226    5.71055378855373
H         4.62708718280931    4.25545630137079    6.47316213082985
H         4.07645325468746    5.69384771690848    5.60595677624569
H         6.93060323283450    5.37807289238489    7.97942698566240
H         6.12083448031440    6.12697044089594    9.35960458831704
H         5.63275374761894    4.51391451512493    8.82717505025295

