17
CSD_code = JIYWOD | q = -1 | S = 0 | Stoichiometry = C3H9Cl3NPt(1-) | MND = 4
Pt        2.37237070191665    4.52719710894295   11.05224143114032
Cl        1.95728662432597    2.80579713621009   12.53749755493939
Cl        0.57655867300617    4.03118361948892    9.77572324181594
Cl        3.04661683054156    6.30642402144944    9.71107900514807
N         4.08347267099527    5.02842986531793   12.21581851590784
C         3.82626814533499    5.45929463255913   13.58937332855105
C         5.12386716601986    5.88189778782922   14.28245673209001
C         2.81582828534288    6.59981739704298   13.55867772882974
H         4.71958035137671    4.23213552764434   12.20457422964329
H         4.48501413229918    5.79329083121400   11.66455084139656
H         3.38663355084355    4.60382243480285   14.11549100565433
H         4.92415423714491    6.18273904867630   15.30799129837358
H         5.83800175826445    5.05988692005591   14.30085832314659
H         5.57509831785350    6.72366837816355   13.75822611377635
H         2.52805913771138    6.89147122113282   14.56582218022407
H         1.92630540230233    6.26728867955601   13.01774483545001
H         3.22968401474439    7.46195538992756   13.03887363390089

