57
CSD_code = JIYYIA | q = 0 | S = 0 | Stoichiometry = C21H27BN6NiS | MND = 4
Ni        2.74941784704451    6.99786658726392    3.76751367460671
S         3.28225082831189    7.58497132182576    5.80621720805714
N         2.04842697253542    6.34954154174172    2.10602146757825
N         2.48262059412685    6.95581660489827    0.98875379269316
N         2.02882965667532    8.71922009010886    3.22017358452702
N         2.44985560474439    9.18802797416721    2.03310809931016
N         4.75574010466778    7.44030451180648    2.83444966003644
N         4.63419601324538    8.04672494868854    1.63840702497197
C         1.24410340761093    5.34969661595813    1.75534640058303
C         1.18940921697498    5.28625918173037    0.36222643946528
H         0.63599180625182    4.58650554867915   -0.23037461356519
C         1.98743742021592    6.32279670709315   -0.08804919346506
C         1.26752063501526    9.64402661677625    3.79968929351474
C         1.21074388255305   10.75744200183990    2.96154928030193
H         0.68284736287109   11.67210341349445    3.13947107215988
C         1.97377658192296   10.43137849079824    1.85371174954211
C         6.05086507432137    7.40123397769950    3.13313576087039
C         6.78358421748671    7.99135479209961    2.09832176391567
H         7.84684621072176    8.11079982899548    2.04450508121756
C         5.84705933271115    8.39202523914386    1.16624424691373
C         0.49336083976173    4.53311397057159    2.74476410590364
H         0.92443845225488    3.53775790954149    2.84161542848404
H        -0.54177841134552    4.42610233048124    2.42524640350022
H         0.51573101627558    5.02184723273421    3.71898161193807
C         2.28484753864708    6.71434843325514   -1.49016528200717
H         1.87424295684956    7.69821065885536   -1.71057910928124
H         1.84500595827252    5.98997992570601   -2.17038737251577
H         3.35940082458457    6.75185071829252   -1.65607049602266
C         0.59300210128415    9.41989906943485    5.10458757683681
H        -0.36291360237694    9.93776576916594    5.13036239382682
H         1.21306844030378    9.78712787252127    5.92166997264168
H         0.43334030855000    8.35112135181416    5.25140119671289
C         2.25582241308264   11.26217870961274    0.65446427342873
H         3.32834445744533   11.39054955143733    0.52382392724820
H         1.79465097701425   12.23882944567610    0.77337217521260
H         1.85966602991342   10.79174017474456   -0.24365532526760
C         6.58818204511227    6.81272202959528    4.39110091990949
H         5.91155727542683    7.01289141162921    5.21926187086174
H         7.55932401516365    7.24800809165946    4.61410027027568
H         6.71593590804715    5.73338932300219    4.29268622865553
C         6.06556625495469    9.08202516843562   -0.13251870284287
H         5.65435442509541    8.49862234441281   -0.95439398730912
H         7.13127353114402    9.21861012472603   -0.29575382437128
H         5.58192646869244   10.05735312445908   -0.13674527275275
C         2.71975319949353    5.94772494749736    5.70833125852717
C         3.36008755039302    5.07059685970351    4.79957394058813
H         4.29434242918910    5.36627125782639    4.32167400115086
C         2.95121722366225    3.73915946134194    4.73508022838574
H         3.46619321493328    3.06032226394736    4.06939278661024
C         1.93216492124491    3.27713524405845    5.54297401628239
H         1.63688131484972    2.23900362881396    5.50566060378937
C         1.29527388516287    4.14444748288120    6.42957069133971
H         0.50594528440056    3.77306576598523    7.06707665395698
C         1.66958685334253    5.46532680669816    6.50702525200709
H         1.19635405413886    6.13935731951399    7.20643287882967
B         3.24814527716445    8.29718228349846    1.04946847112901
H         3.30538179788654    8.79476594166562   -0.01575155887600

