51
CSD_code = JIYZOG | q = 0 | S = 0 | Stoichiometry = C19H30NSc | MND = 12
Sc        1.36736883666808    0.66057288574520    3.40255404316666
C         3.59489594916138    1.12922302794542    4.42890907797188
H         4.35338048587690    1.84055895554525    4.13149976116242
C         2.63353986650947    1.35294263133547    5.44611281549063
C         2.02667554942408    0.10426792234206    5.74348753078041
C         2.60363382675437   -0.87678359859544    4.89687758076266
C         3.59906995636562   -0.24159574789516    4.09642668196838
C         2.52598882680259    2.62124968506646    6.24797976884274
H         2.96075182307304    3.45631654474420    5.69904585916764
H         3.07720711562653    2.51419423134309    7.18609633700134
H         1.49537274761566    2.87024325230784    6.49679604861371
C         1.14671989256445   -0.21097815846809    6.92226437327092
H         0.22014694963065   -0.70378074754151    6.62377761418036
H         0.89784900135734    0.69231567934801    7.47409459762650
H         1.67387215534922   -0.88419651445060    7.60198187141288
C         2.41691614251522   -2.35961180280216    5.04264354452985
H         1.38321496421234   -2.60620332353190    5.28071921577486
H         3.04465317449045   -2.73634871853417    5.85491786303691
H         2.69929019584192   -2.88162631668991    4.13134193222319
C         4.66420265681288   -0.94736385078054    3.30706113739636
H         5.38632409269395   -0.23210457749593    2.91688287887360
H         4.26295361350351   -1.52124920124023    2.47152884982592
H         5.19999764805525   -1.64337091843445    3.95588051749864
C        -0.01302822696500    2.66382586990154    3.86063756527166
H         0.34544463365539    3.64606427476039    4.14487016341209
C        -0.51143040507951    1.68938252415291    4.75333591716911
H        -0.58841496725900    1.79787763660932    5.82544264963434
C        -1.09031104493166    0.65820560906567    3.99778528799277
H        -1.66032462799235   -0.17235416178482    4.39010187888821
C        -0.98466101107286    1.00702798456175    2.63407191789862
H        -1.45856880300733    0.48855205553644    1.81379053155725
C        -0.33155977537486    2.25293082630704    2.54895704085739
C        -0.01452785696414    2.98960407652576    1.28202981402457
H         0.16357557906399    4.04617131543161    1.49534053285598
H        -0.85787223804721    2.93191505151897    0.58864905592493
C         1.20767028378288    2.36720933879130    0.59322128561234
H         0.91368907794625    1.39929630130671    0.17822604870131
H         1.54108093244308    3.01368080130428   -0.23654304965445
N         2.32270959234813    2.12970082635970    1.52632602383944
C         3.37376078503234    1.40944769958684    0.80182055046646
H         2.99906894319208    0.44266569104520    0.46923006597802
H         4.22584657209178    1.24606821218894    1.45836248190124
H         3.71275106792148    1.98007006583121   -0.07572770997319
C         2.87242746145880    3.42356060701674    1.94192275477873
H         2.14796622636293    3.96840593534950    2.54198433516622
H         3.14075970692964    4.03668965075956    1.06871645000401
H         3.76927358455121    3.27091307009760    2.53861819278178
C         1.20043064450981   -1.08110757193800    2.03445850624601
H         0.72421051645639   -0.86246171465966    1.06883557904345
H         0.55816824134208   -1.82869760855140    2.52541689334441
H         2.14153963670667   -1.59461570633930    1.79983933569866

