59
CSD_code = JIZFEF | q = 0 | S = 0 | Stoichiometry = C26H24N2NiO4P2 | MND = 4
Ni        7.28281525497596    5.71449386737348   19.58452076643677
P         5.75399332297170    4.59729592214052   18.40077997297513
P         5.65340441968182    7.17465346855542   20.03343466365950
C         4.21544076514350    6.81913033725839   18.91649213748359
H         3.30211831544116    7.26476148183544   19.32153060035083
H         4.42945307490593    7.26682689881696   17.94068914920933
C         4.07961570622560    5.30600354451603   18.76895344953309
H         3.37465926831281    5.04280191845303   17.97482744555398
H         3.73200780204917    4.87462633019700   19.71303123767408
C         5.47272922202060    2.83443527736475   18.09372929691720
C         4.36310700897363    2.13602176011490   18.55472022265807
H         3.58177527512957    2.64626700083440   19.09876759012602
C         4.25888084016869    0.77673658352098   18.31561563257122
H         3.39286288705282    0.23664801338824   18.66965193438429
C         5.26086709045021    0.10848348035837   17.63247568185018
H         5.17474384957244   -0.95268669051279   17.45242803054536
C         6.37881567230856    0.79852106873406   17.18956873239533
H         7.16689833490247    0.27672203413222   16.66796014761400
C         6.48928916306198    2.15500219200891   17.42323266055815
H         7.36446843138393    2.69927804551324   17.09211125929315
C         6.03818119656981    5.24902828096546   16.72528509169907
C         5.29623754887815    4.82368479249930   15.62831244169850
H         4.54125800401077    4.05886048401455   15.75238594851853
C         5.54108754796836    5.37181610014210   14.38314345600106
H         4.96928022772523    5.04079535707942   13.52850568220352
C         6.52159096545774    6.34047281042329   14.22824480302197
H         6.70989226526567    6.76101377622738   13.25156751159357
C         7.26511886864790    6.76262945656746   15.31817663583818
H         8.03457946534272    7.50968720779866   15.19673537907766
C         7.02597627691004    6.21647958067242   16.56614790932125
H         7.62600366950495    6.53529212325747   17.42537163779895
C         5.62480696537552    8.96651844267747   20.29751689819080
C         6.35720967765206    9.44105751891524   21.38508162729575
H         6.87389604255193    8.73817147645432   22.02604314699296
C         6.42400543012947   10.79727090966217   21.63646868851716
H         6.98992775113140   11.16044909905660   22.48101749615874
C         5.77138177787023   11.68944357772576   20.79971187838782
H         5.82412902485503   12.75017826724372   20.99461560301739
C         5.06006727752695   11.22242554811526   19.70736787595889
H         4.56078354293680   11.91867271218848   19.04937270183324
C         4.98972759031484    9.86466703826305   19.44812644603708
H         4.44246688735220    9.51070926504242   18.58671454221604
C         5.01857522258113    6.53529666150446   21.61526832814155
C         3.95929628834578    7.13699243011549   22.28656622193057
H         3.50804455184559    8.03493258954807   21.88605729617029
C         3.50051272262452    6.58989928041914   23.47025633281587
H         2.68022265879732    7.05698272148716   23.99551839596687
C         4.09341814678504    5.44713973766518   23.98624673872281
H         3.73139691031706    5.02709673392118   24.91291168826965
C         5.15257034830599    4.84938905438157   23.32305489496326
H         5.62087818948084    3.96562491762870   23.72873453158794
C         5.61737502949230    5.39351408463122   22.13945537347248
H         6.46750977569200    4.93302228405851   21.62451545883285
O         8.39820593296189    3.65564880301196   20.44860084318973
N         8.48390198504473    4.42112603118005   19.50059817528922
N         8.56476528371146    6.73420670942670   20.24427085125556
O         8.70788772697236    6.84685080337036   21.44687978555914
O         9.05856493833995    7.45747978376585   19.39285142856077
O         9.10792057998997    4.22085101428343   18.47587964212237

