85
CSD_code = JIZKAH | q = 0 | S = 0 | Stoichiometry = C36H43NO3PRh | MND = 4
Rh        5.96865004256534    6.02641094369904    6.78773293034664
P         6.08840331158261    5.25835808158071    4.68085824468151
O         3.97602796840633    5.96364977732424    6.81147721766829
O         5.90191514890109    6.68897413762151    8.72239428169471
O         8.94192742091045    6.12372862291630    6.72354690730539
N         6.73542647515243    4.23717609585288    2.05497900050175
C         4.80514685863664    4.77967821864351    3.47440861141123
C         3.44268917921482    4.85390572699487    3.68407410810200
H         3.10119931394565    5.22250808472494    4.63866432312138
C         7.05709057519988    3.74043514638707    4.42340166574672
C         7.53297251530016    7.48191103926768    3.68393631827897
H         7.32040064056184    7.94127954712177    4.64272408392630
C         8.49962097898225    7.47153377522165    1.50559673468992
H         9.07218978684363    7.93943985352040    0.72170823954303
C         4.43577671714950    3.91833466651155    1.27029108419738
H         4.82281355314004    3.55437026124138    0.33084124882884
C         8.00124395414378    6.19728257842784    1.26896455374503
H         8.18427082477641    5.69986257782619    0.32886292176077
C         7.28045518773826    3.39852013811842    3.09073456553535
C         5.31255270114461    4.30902886296337    2.25979701432224
C         7.26881707317666    5.56055202552497    2.24830402472843
C         7.55909722204982    2.96449212821143    5.44814682851666
H         7.34990956878521    3.27931773326618    6.46517983473764
C         1.05292565896167    4.56521341013079    2.96360489580109
C         3.06732391686371    3.99666494499260    1.49030959535047
H         2.41155586687589    3.68305791909772    0.69470981479234
C         2.54567931872692    4.46157492419802    2.69100592178914
C         3.54976040178625    6.68972951590886    9.02766988357175
H         2.77127602302670    6.89488981342367    9.74530634442007
C         7.04176130325500    6.21201754466112    3.45982425924883
C         8.27943476513146    8.13709142926651    2.70645721407204
C         3.18310186270566    6.25266302428701    7.75752881328492
C         8.31036377298987    1.82389316851503    5.17180673843995
C         7.64198781199153   10.46737275658507    3.29599532049231
H         6.96983434476427   10.50938187171616    2.44125563422017
H         8.00765403923578   11.47191280817867    3.49763951602499
H         7.07529104020603   10.13165595031994    4.15965610627261
C         7.79316772672234    6.09255690539784    6.76810564811927
C         8.81922221075740    9.52774368505829    3.00025329678666
C         4.87683886380444    6.87867771412031    9.43000579738987
C         8.52622726734606    1.49885269455714    3.83703522192928
H         9.10248207193838    0.62629787844528    3.57652323307505
C         0.71195889146553    3.71719369812680    4.19681632051764
H         0.95847021725107    2.67339159162294    4.01320307464392
H        -0.35112566096978    3.78725983695469    4.41817159223685
H         1.26627472511756    4.04748124217539    5.06971234193476
C         0.19893852258886    4.07046443302951    1.79335377993824
H         0.37858438759027    4.66180351206230    0.89853060438169
H        -0.85441477457753    4.16340411802198    2.05029057688979
H         0.40072583285866    3.02400830823944    1.57661863234395
C         5.11241010443810    7.35089359846167   10.84852605953140
H         4.80617349106956    6.57601099236137   11.54815109043177
H         4.52794506161879    8.24442506147252   11.05188515628282
H         6.16803383849733    7.56364377619802   10.99263953752676
C         8.01905554005167    2.27102773281574    2.80030287289483
H         8.19960146768247    1.99915873233277    1.77161104957221
C         0.70172184071663    6.03652764172032    3.22512974646471
H         1.27752497044850    6.43892419132445    4.05355113702074
H        -0.35609541450936    6.13513420897376    3.46018131380850
H         0.91730098570500    6.63627284516518    2.34323149730962
C         1.70729023849444    6.08175752812939    7.46402668298699
H         1.49041427288090    6.40289091433597    6.44734347403193
H         1.09786119077149    6.64884138359505    8.16049608801553
H         1.44621379991440    5.02690186338770    7.54917488580971
C         9.61757206868956   10.11129180082207    1.83162759844757
H        10.48265187462906    9.49378084732931    1.60164476887866
H         9.97540723981605   11.10360266360536    2.09839949459543
H         8.99854226846417   10.20587513887360    0.94237361181941
C         9.74274766661530    9.44843868506559    4.22397623430577
H         9.20865520007466    9.09692405940622    5.10202340906557
H        10.15552609335236   10.43037593474050    4.44513531430921
H        10.56508624110166    8.76297702396875    4.03048070742976
C         8.86344183002946    1.00735246494915    6.32898888910304
C         7.70013676599225    0.54173381794978    7.21566729101169
H         7.15868365636904    1.38504744334355    7.63427851247073
H         8.07672919159251   -0.06262020572494    8.03811535092632
H         7.00230439124580   -0.05951858503637    6.63636201349247
C         9.81515411067985    1.89547117505648    7.14276043471165
H        10.63375810443178    2.24248006116822    6.51578914373480
H        10.23167972162232    1.33289298911027    7.97554809721447
H         9.30093098106685    2.76576115870128    7.54055553544652
C         9.63601888275712   -0.22978634118811    5.86394844327154
H         8.99771510928668   -0.89612012409457    5.28815362805101
H         9.99744184461855   -0.77748319605617    6.73187455327424
H        10.49756794306583    0.04930799572893    5.26203145536789

