63
CSD_code = JIZNUC | q = 1 | S = 0 | Stoichiometry = C26H32ClIrN2P(1+) | MND = 8
Ir        9.69728575254077    2.64661047325430    2.52306413420574
H        10.75053605299429    3.70837467504899    2.79750133795891
C        10.29397187847395    0.49500997099373    3.58425364855652
H         9.41960795350520    0.33228919292974    4.20502149825425
C        11.19734013888847    1.43221727669070    3.97277356219040
H        11.04463155464416    1.93464163585005    4.92567338379406
C        12.59451409889378    1.57970257849585    3.42682301210880
H        13.22572912118593    0.81455098025066    3.89072243555220
H        12.98138277470712    2.54864928792241    3.74506924551687
C        12.71363480711350    1.47857526418568    1.89501626768556
H        12.86372084006086    0.44047150542234    1.59603580618562
H        13.60476500199091    2.03030059784625    1.59223010193512
C        11.53274105347105    2.02442160882142    1.12502401567632
H        11.75458838994501    2.91178553347468    0.54260542387556
C        10.43444463883455    1.28367311477819    0.76944486036221
H         9.84274906085582    1.62367476123994   -0.07721475833198
C        10.19245345917673   -0.15839115603462    1.11790152473407
H        10.75097195472504   -0.77541605059220    0.40476648429232
H         9.13387669134023   -0.36729179988617    0.95705818335222
C        10.56059363128594   -0.56853715423680    2.55476524435358
H         9.96901574277097   -1.44928754357433    2.81157595922726
H        11.61175540587586   -0.85507122996811    2.61351608075333
C         8.84989748270989    4.02596654283702    1.26971895161329
C         9.37010903080840    4.54317686148021    0.10315298821572
H        10.33494725310841    4.40808815716983   -0.33972949826774
C         8.61541520650050    6.05238976021103   -1.73008429953198
H         7.70924159534385    6.60374551067077   -1.97102603514261
H         8.83157720135504    5.35220613060803   -2.53781510578371
H         9.44769435258953    6.75204176561207   -1.64479807348174
C         7.36014351584077    5.33688533265017    0.27577894943518
H         6.45018760581769    5.86591365841204    0.07128323670836
C         6.58612214134780    4.31472490304147    2.35420433339677
H         6.30699647218764    3.25607400653386    2.29011053288015
H         5.71570844036439    4.93845803203657    2.13676364604751
C         7.13233409002253    4.62088594969645    3.74389165227385
H         6.31796574963008    4.63275856817463    4.47202649617288
H         7.61498354758560    5.60341813362020    3.74714607199949
C         7.50996911215134    2.14591013734094    5.25570176624664
C         6.17822285891425    1.82446519976645    5.02070914117377
H         5.61715454138995    2.33261031290394    4.25184885878722
C         5.56674204665909    0.83225940618189    5.76652179305185
H         4.53282922358929    0.58580999144115    5.57847218842464
C         6.27591518981082    0.15077409801275    6.74180309003166
H         5.79573241614204   -0.62779564685741    7.31409620340303
C         7.60341063609612    0.46883152729694    6.98090118133319
H         8.16006868938193   -0.05744087290280    7.74144110458773
C         8.21920095506898    1.46043217205079    6.24067152279070
H         9.25280788465392    1.71786111371984    6.43353321775184
C         9.15989654927112    4.37446619405325    5.64830911322248
C         8.38098303730878    4.64863300547789    6.77119092640661
H         7.37354266257501    4.26157756126483    6.83781684875836
C         8.89841743910084    5.40266036069546    7.80722870111552
H         8.29057118177209    5.60940741639337    8.67471629748385
C        10.19496994625641    5.88805700935344    7.73468898462527
H        10.59862781311097    6.47091635445379    8.54803417602445
C        10.97039829653332    5.62250561280729    6.61889862160256
H        11.97962618590472    6.00027915987249    6.55910586524501
C        10.45447911245438    4.86956477389503    5.57767894151461
H        11.05227620061680    4.66417350096758    4.70188105929173
Cl        7.62707491776733    1.35003669252183    2.20170252123967
N         8.43964988110513    5.34118797370917   -0.49376634000736
N         7.57986449624318    4.56028108036922    1.33598435651851
P         8.41053503763839    3.39914902954815    4.29677856059960

