79
CSD_code = JIZNIQ | q = 0 | S = 0 | Stoichiometry = C32H42BCl2PRu | MND = 9
C         3.01914787533162    5.15509921597189   20.48368975021033
H         3.24840935146357    4.28679777455289   21.11042137889174
H         3.96211540038720    5.51055270397238   20.05875217904791
C         2.31074755662915    6.24368130659957   21.29182279247494
H         1.40029316017246    5.82404890812938   21.73416039154833
H         1.96199769080994    7.03283168506108   20.61809500861148
C         4.56519640562746    6.40917170403772   22.97996704044089
H         4.98681472696038    5.55024828310552   22.44865009670150
C         4.40046506961282    5.96808668470907   24.45052965170695
H         5.37732262650122    5.70327144139735   24.86364494124583
H         3.79154904659407    5.05977233244360   24.44525471651044
C         3.73873915142252    6.99727077005403   25.36907755621504
H         3.43207793468956    6.48876413643795   26.28840156039114
H         4.46730357267497    7.74860697935750   25.66605790912465
C         2.50818167151246    7.67868186331681   24.76716951671450
H         1.66780642134356    6.97936120027594   24.80602883756366
H         2.24351850366273    8.54168010730888   25.38476714434433
C         2.65856556350315    8.12078836031426   23.29627951530579
H         1.67944905398088    8.50869644155039   22.98896037501603
C         3.66539423036787    9.27277619590326   23.09225453177498
H         3.57693269843569    9.59434529055875   22.05048833193260
H         3.38367168114241   10.12209906042791   23.72116484157791
C         5.12610190461265    8.91341421786103   23.37061625926817
H         5.75838002308721    9.69643183799488   22.94082507578870
H         5.31039574583110    8.92876269475840   24.44271272063531
C         5.56565152543562    7.56901928076007   22.78692557955340
H         6.53063276647040    7.29451105948481   23.22103828369045
H         5.71488989644110    7.68628613170037   21.71018027351925
C         1.48955525702696    5.92885985107539   18.12134228475474
C         2.33457710388660    7.02181455620062   17.95333117768744
H         3.29618472991635    7.03392757052001   18.44337850255294
C         1.95504202385676    8.07098701561203   17.13500242586213
H         2.61397611545328    8.91715532158026   17.00908718962745
C         0.73953772781216    8.03594687422173   16.47204078645582
H         0.44598389370798    8.85642101936902   15.83408608893391
C        -0.09628553173671    6.94006073518184   16.61859342931007
H        -1.04020753925184    6.90537691693527   16.09292430134914
C         0.27919784736182    5.88804762215082   17.43306040770373
H        -0.36824268261430    5.02789604678844   17.54582700789846
C         0.52002117930586    3.94200032721212   19.96907082179651
C        -0.55283117804214    4.77753253593199   20.26237196761087
H        -0.54852154080205    5.80515958831713   19.92789383815015
C        -1.62877021041402    4.29063995551929   20.98425703697246
H        -2.46131011720335    4.94191100034944   21.20825000803408
C        -1.63903384323090    2.97706526525644   21.42438247069644
H        -2.48286580055896    2.60323312039121   21.98559603810759
C        -0.56266185539391    2.14774009724849   21.15185256769698
H        -0.56207901423789    1.12766086395623   21.50729855290357
C         0.51356516389523    2.62855495469872   20.42876830846316
H         1.37338094408708    2.00235815193100   20.22657319645478
C         1.60427885380182   -0.21660361514407   18.28359706813400
H         2.28321617164186   -0.21238644167208   19.13837253120476
H         1.68899120304858   -1.18606588361646   17.79164956537255
H         0.58551693036084   -0.08861010345568   18.64318291728432
C         1.98410467762863    0.87920629915590   17.33473227558139
C         3.27607220486806    0.86997548662672   16.73208934806819
H         3.96140033404972    0.06371701372962   16.97327825395267
C         3.64604852451684    1.85353025501249   15.81803072358874
H         4.62092479190258    1.81193750339862   15.34323918459715
C         2.74034587486492    2.89115239711552   15.44845474566671
C         1.45608037099923    2.88505618369287   16.01620306317526
H         0.71761941629090    3.60583494358388   15.68641382227368
C         1.08362335777949    1.89286754334604   16.96367438532788
H         0.06789577665299    1.87486470622032   17.34716147479285
C         3.12500660593802    3.86185400562434   14.35753511834067
H         4.21270605577738    3.81509894941646   14.23275487651535
C         2.46503170057819    3.41812686041118   13.04653647552281
H         2.75083322020837    2.39823634311873   12.79432913216126
H         2.77422166781976    4.07328987783038   12.23585349577256
H         1.38056570686155    3.46167019702669   13.13045004018704
C         2.75951161873252    5.30582787597080   14.69800641269550
H         3.19200121545059    5.57833458914445   15.65890039502223
H         1.68213712186922    5.44829815821476   14.74500912358684
H         3.15758135767368    5.97457128379568   13.93882546478392
P         2.01910697683793    4.49093095696355   19.09308025689672
Cl        3.92588084751432    2.05256573974193   19.70843908569408
Cl        4.65842846879703    4.52498362818466   17.65609327011629
Ru        2.94751736717839    2.89959243865081   17.73798659555161
B         3.15808765284114    6.88123574943171   22.45829622930260

