55
CSD_code = JIZNOW | q = 0 | S = 0 | Stoichiometry = C24H28ClPRu | MND = 9
C         3.92842451443057    4.37908343472533    2.06908466348945
H         3.68557981177528    5.41854876916110    1.83275628233258
H         4.96426192044247    4.30586916130783    2.41387722790008
C         3.63744783834087    3.34891633372524    0.96491735865947
H         4.54696882167050    3.06972969943065    0.42158267538905
H         2.90606883584421    3.74246453261030    0.24964950280770
C        -0.00946890844039    2.47159379236263    0.13934630654718
H        -0.85423974582661    1.93726233461375   -0.30093179912102
H         0.53389347238533    2.96214697046962   -0.66614577503729
H        -0.40034362588187    3.23042290239464    0.81540833265873
C         0.87095245668422    1.50273845522263    0.87508268704017
C         0.63597160921429    1.19795842279800    2.23926198321732
H        -0.17005735945752    1.71110279748107    2.75869006383232
C         1.27075756414281    0.09499700162696    2.87076439968100
H         0.95541280367843   -0.19770206711087    3.86439932073354
C         2.27962438612787   -0.60706687451633    2.20801169049347
C         2.60291107217129   -0.23336998743072    0.86880871605303
H         3.34182160483073   -0.81377058843745    0.32531981300631
C         1.87860256939625    0.76740753735950    0.20195252465703
H         2.05373698459011    0.94486343599307   -0.85490905247207
C         2.94666223001039   -1.81156301122492    2.83071682923487
H         3.79510009592425   -2.09497940647325    2.19753246021732
C         1.95148397824389   -2.97705144009790    2.85887004912414
H         1.09686138556618   -2.73767809243597    3.48893259364568
H         2.43286478343710   -3.86756937341763    3.25601337209601
H         1.58833099376667   -3.19843558942121    1.85653063633946
C         3.48994369469585   -1.51377768035688    4.22841670655313
H         4.16807282508798   -0.66316511653039    4.18150784495058
H         4.04075040152952   -2.37371857272159    4.60233031288542
H         2.68655270564785   -1.29287961811154    4.92819426968324
C         1.36009613797525    4.57538344686722    3.47961704960903
C         0.66266867012767    4.59435735902609    4.68411187748485
H         1.06828470157119    4.07102577131904    5.53955137804045
C        -0.53187075230147    5.28359855969695    4.78578086168539
H        -1.06559132710402    5.30036635018863    5.72496989827599
C        -1.04610931397388    5.94958156890515    3.68494278110089
H        -1.97909684137163    6.48767684652415    3.76536467270435
C        -0.36436026191454    5.92008860448017    2.47871921055989
H        -0.76786633119005    6.43477612462476    1.61828007146069
C         0.82971528624352    5.23061859087764    2.37288575985187
H         1.35711420866508    5.19731325519062    1.43064528610427
C         3.66435865053295    3.79691129607300    4.93944076925224
C         4.02384899111565    2.69591205844640    5.70476046923850
H         3.81840598817587    1.70421332206810    5.32568750193809
C         4.65908662444154    2.88240775501065    6.91999788016879
H         4.94626851225804    2.02831345923649    7.51535799491397
C         4.93156821858444    4.16388089629696    7.36914926866884
H         5.42976670416903    4.30894427026958    8.31667190760989
C         4.57195578388155    5.26410348343436    6.60491345100921
H         4.78986577652206    6.26174227870796    6.95803424858036
C         3.93907331059821    5.08492927815888    5.38980365854817
H         3.65210094405266    5.93422015056936    4.78381694147837
P         2.86128368542969    3.56200872834669    3.32624818932457
Cl        4.99832275342381    1.37030537251556    2.74344701259409
Ru        2.77436016005223    1.70894301016280    2.02652986319756

