109
CSD_code = JIZPEN | q = 0 | S = 0 | Stoichiometry = C47H55MoOPS4 | MND = 6
Mo        3.11804731355294   15.62092705964432   13.24554681356314
C         4.25547628713243   14.19760069232232   13.94869726674204
O         4.93489578067934   13.36932960108095   14.35698625213377
S         5.33702634914087   16.31634306090955   12.73992082101825
S         2.83703084673645   17.95101602081242   13.61457766121598
S         0.83065777995538   15.65732966529979   12.60357001056472
S         3.24127566647973   14.12470293243675   11.39580672241731
C         4.31725567098242   18.76534173793198   13.19283198550595
C         4.30445474479896   20.15834904426427   13.25043690392201
H         3.37815746136937   20.62973181825283   13.53320035259934
C         5.44451166995167   20.87033068163034   12.95667457700119
C         6.59315729239638   20.14703914515130   12.61456616989962
H         7.48129552010263   20.71090088834487   12.39364724132671
C         6.65256801532890   18.76820407133487   12.54307432734227
C         5.46635524175526   18.05701900152866   12.83323819837541
C         7.95648059426855   18.06701852702388   12.17355322011943
C         7.77085592807734   17.27557643885123   10.87162570513737
H         7.03259068503699   16.48867673275199   10.98315440252607
H         8.71316129760990   16.81687961672847   10.58013592435685
H         7.44738913106068   17.94147833338395   10.07362621244051
C         8.38530171946798   17.14007792319412   13.31988318507795
H         7.65220836331050   16.36060361739732   13.49979677715365
H         8.51169596330437   17.71489360742867   14.23591352313228
H         9.33229389768184   16.66397084392414   13.07584005967000
C         9.11088738683550   19.05078578278252   11.93938860391290
H         9.32267052484038   19.63715315970517   12.83099988061915
H         8.90320481648599   19.71832248817999   11.10602505016415
H        10.00785760446341   18.48572905209530   11.69388563454394
C         5.50738685050019   22.38868055893473   12.99621065264175
C         4.16431603363373   23.01664458159246   13.37723754980783
H         3.39267405569647   22.75178665902245   12.65848875022982
H         4.25938595688006   24.10066710829121   13.38622571668754
H         3.85099718154849   22.69764303018101   14.36850174856198
C         5.90403702128123   22.91143708265883   11.60848266600325
H         6.88831590888306   22.55705205458962   11.31526674531594
H         5.92123041066005   23.99931863642052   11.60998660469577
H         5.18537719800706   22.57812131092124   10.86286145161823
C         6.55190780509404   22.82177367685221   14.03451458097414
H         7.54275565994719   22.45732409272541   13.77795381933014
H         6.28887947807769   22.43285313961019   15.01607382547494
H         6.59338338248165   23.90744087531138   14.09252448992040
C         1.65469089773852   13.95450943859236   10.69705073283851
C         1.54610280633953   13.15685887375330    9.55832082323903
H         2.45192879523482   12.71559990755214    9.17827993607106
C         0.31855470231614   12.96178694940713    8.96791322882445
C        -0.79621509939367   13.55014265691701    9.57659125439893
H        -1.75595815761255   13.36596522465203    9.12862286046092
C        -0.73713781941589   14.34408619762316   10.70585630048677
C         0.54036992760821   14.58258206832472   11.25853001504230
C        -2.01409155319114   14.88769844357228   11.34036060169461
C        -2.00136757369445   16.42223596889754   11.34357507366383
H        -1.19404475053063   16.81766414102228   11.95012367822076
H        -2.94150600459426   16.79941264199246   11.74092982925298
H        -1.88126864119743   16.79375538159022   10.32781876783714
C        -3.28059769519092   14.45411004414793   10.59034092055656
H        -3.37836921472122   13.37109357753496   10.56397899694147
H        -3.29423111464424   14.84488870505078    9.57541956576618
H        -4.14967185677518   14.85211122046740   11.11064131700451
C        -2.12893814126975   14.33408170927371   12.76848720786099
H        -1.25361721758561   14.57835864716911   13.36206051208608
H        -2.22204220735146   13.24969647202012   12.74267052423944
H        -3.00663178554277   14.74664300161435   13.26149961911733
C         0.12550658174772   12.13925076928005    7.70426969229404
C        -0.47800242902377   13.03956973443480    6.61686993598525
H        -1.45220290465225   13.42029312774710    6.91127063538893
H        -0.59627615810734   12.48067171221120    5.69100124128156
H         0.17625702299689   13.88788966489247    6.42748293377129
C         1.44310297899696   11.56697512159758    7.17567963949054
H         1.89882358301446   10.89964445997519    7.90324658995279
H         2.14434990904187   12.36196649305566    6.93420696305766
H         1.25356742638684   10.99730719641065    6.26808290089847
C        -0.82287033984230   10.96821574198726    7.99699472762324
H        -1.80300097638871   11.31672925414151    8.31075435929697
H        -0.41375012568376   10.34213005286531    8.78714620467822
H        -0.94935212891167   10.35933151426366    7.10429786271690
P         2.01724439323005   15.50455949002645   15.38658159564680
C        -0.01477515751675   14.00126673879504   16.59061206187470
H        -0.12816630014156   14.83644111182704   17.26920225143085
C        -0.83477717425646   12.89371079637302   16.70458248909571
H        -1.58641114356211   12.86069742646552   17.47963200172707
C        -0.69798414166114   11.83271602747809   15.82380612016082
H        -1.34657801421873   10.97372763653545   15.91000285943849
C         0.26677193776121   11.87533297888524   14.83049226614395
H         0.37377717918753   11.05039698107438   14.14202147673259
C         1.09083695765880   12.97990792527708   14.71145188305687
H         1.84001936161696   13.02034237146214   13.92431933348796
C         0.95147667187971   14.05175950747689   15.58753829941308
C         3.09459672392958   14.53711984143916   17.81845091778040
H         2.18289658298878   13.97062845855537   17.94440304071644
C         4.10377648023468   14.44638256442342   18.76168934568313
H         3.97320988416520   13.80977298212803   19.62440785830952
C         5.27806326933869   15.16202040233859   18.60021542163371
H         6.06364538054993   15.08328397742154   19.33678269838348
C         5.44890934610465   15.97427681856035   17.48979505820808
H         6.36465642532259   16.53176741736456   17.35983838860497
C         4.44887638887651   16.06265607452251   16.54027888019322
H         4.58195153885080   16.69299962455139   15.66349645686233
C         3.26351545835508   15.34583092948558   16.70041544593320
C         1.51252239823388   17.89172509572706   16.74093270218103
H         2.53440512260044   17.82010986836624   17.08874964983626
C         0.74254605009635   18.99216847800086   17.06965017178284
H         1.16445392911141   19.77771441388389   17.67954026290008
C        -0.56085343544878   19.09282475989282   16.61162118681554
H        -1.15679828577691   19.95738920886134   16.86450342561071
C        -1.09755606362892   18.08772392503544   15.82335065665760
H        -2.11104811113872   18.16771058705821   15.45870374548453
C        -0.33610824954343   16.98290643109699   15.49276283784585
H        -0.75281342238453   16.20152580591477   14.87337608046823
C         0.97299678779444   16.87527287743529   15.95728559450811

