47
CSD_code = JIZPOY | q = 0 | S = 0 | Stoichiometry = C20H18F4IrNO3 | MND = 8
Ir        8.96012108633623    8.13442467562715    9.29977246857727
F         6.98147976872855   10.70888209660718    9.32720474413892
F         7.05487430033136   13.04788207779369   10.65501092593430
F        11.22542982850814   11.84515826213484   12.52237590974984
F        11.14105665932732    9.51107218952411   11.20434186188810
N         9.22053789911387   14.72907250664646   12.88953023627906
O         8.19299331165873    9.31605036221073    6.63958128952498
O        11.61021252530632    7.44139097003306    8.46422477545600
O        11.20352762611967    9.63403945999215    8.29183104602994
C         7.53019114482705    6.31833874380917    9.45216570260937
C         8.90393164306429    5.88154662026707    9.45860922163825
C         9.51872688559932    6.38180069472086   10.64700330066378
C         8.56927455491268    7.20121484752820   11.31694249643427
C         7.32515851097608    7.14005041903145   10.58699040166671
C         6.46491391856934    5.83688187944130    8.52033145632763
H         6.87171061969758    5.60096591991042    7.53964801122678
H         5.68182497625156    6.58194047235348    8.39883719876598
H         6.01050179734436    4.93085523729858    8.92582103011242
C         9.51407566766413    4.84544477784934    8.57077499347268
H         9.53387186766260    3.88236058686438    9.08371801168333
H        10.53860607895210    5.11750400359099    8.32264343776189
H         8.95132978364906    4.73156255761667    7.64753204130468
C        10.86292109282638    5.96701645946864   11.14918158843531
H        11.21656074599717    6.63531651174162   11.92990629183525
H        11.59042688842330    5.96967718896920   10.33979141681722
H        10.80819067192138    4.95576273928821   11.55567653689975
C         8.71334895644832    7.75050494507394   12.70271954851291
H         8.38122617732365    7.00223518933876   13.42487668018646
H         8.10874131314357    8.64522156589460   12.84295648094289
H         9.74883055304281    7.99668435592686   12.92547140826861
C         6.00598786747921    7.65741328181679   11.06705828351419
H         5.37421491057601    7.95671846661160   10.23336850107000
H         6.13396493129601    8.51688888055707   11.72112340959666
H         5.48336246607796    6.88004169466761   11.62805059216681
C         8.47371763157697    8.86320529458209    7.65327458581188
C         9.06664992429004   10.02794480773776   10.19675183228942
C         8.04923569736627   10.97765274736380   10.10558292236134
C         8.06982451341047   12.18687224079665   10.78526378586374
C         9.14622857579312   12.51120551294093   11.61465584597755
C        10.17926637691789   11.57839702957740   11.73145059114944
C        10.12175477677702   10.37884429785120   11.03855706531617
C         9.18788799176150   13.73862500485714   12.31728419924560
C        10.87052015545051    8.38125951621018    8.59201937753645
C        12.54927487924445    9.85014670364715    7.84639627740169
H        13.24482113875313    9.65907020290256    8.66488011568622
H        12.59985859012388   10.88943365066934    7.53468199345143
H        12.77973271938711    9.18272235065647    7.01483010842094

