63
CSD_code = JIZQEP | q = 0 | S = 0 | Stoichiometry = C30H28B2N2Zr | MND = 12
Zr        2.27286059711095    8.17634271983376    6.38917401150239
N         1.95598520568412   10.03105838386771    7.34159808019527
N         0.32271868382538    7.73626264234444    7.02612914520807
C         0.76739734395954   10.60854689256323    7.03736223786369
H         0.22899215853851   10.23440091330828    6.15981221528090
C         0.19466821995592   11.62587426478405    7.75376325556502
H        -0.75315545120441   12.03013466299186    7.43161855226711
C         0.82097828902596   12.13770750837899    8.90484889149831
H         0.32348018014674   12.92969839345870    9.45155037162094
C         2.02720764030840   11.63838031005739    9.30176114536185
H         2.48984541222923   12.06206543538163   10.18455536496687
C         4.10514260563484    9.98090738078369    8.77870593872759
C         4.57425723199784    9.72244335781353   10.06854636381154
H         3.90544168301900    9.85401124413196   10.90755515283047
C         5.87138655431024    9.29378763725765   10.29103192010524
H         6.20966696079290    9.09301404137230   11.29775842345859
C         6.74311056328974    9.12855102518453    9.22629732670872
H         7.75690601696209    8.79925323652549    9.40102273429275
C         6.31052792331682    9.40385610476349    7.93926256618128
H         6.99555012503554    9.30152219255481    7.10846543659719
C         5.00648205391831    9.81836200835327    7.72182257522544
H         4.68144003438666   10.09279330523409    6.72305236619856
C         0.08456618798679    8.03645417977976    8.32762835705135
H         0.93810715617490    8.34794016681227    8.94182524220403
C        -1.14877501196085    7.98299634718550    8.91872201077130
H        -1.24614128846196    8.23924524869116    9.96293836048316
C        -2.28482362635407    7.60834878099191    8.17728369075322
H        -3.24444550395168    7.59237583657186    8.67982256942529
C        -2.15822588805263    7.27589349388160    6.86068229201749
H        -3.04923855469564    6.98676123615634    6.31695055013693
C        -0.59578005656907    6.88070946981639    4.71389064321704
C        -1.14766540619301    7.63670453905001    3.67637687838338
H        -1.63707977615380    8.57317728600922    3.91315501491428
C        -1.10129370036170    7.21216354051980    2.36033596600724
H        -1.52904089362288    7.82390457489820    1.57867613377236
C        -0.52210195508105    5.99453058884268    2.04405791654659
H        -0.49266752156438    5.65496901443687    1.01896227216980
C         0.00240739017640    5.20841772290467    3.05601319829363
H         0.43708615857207    4.24652865162470    2.82097994227652
C        -0.03230273615722    5.64995451744113    4.36933305815864
H         0.35628783732210    5.00781174135276    5.14772139140284
C         1.74896584633021    9.14198473794973    4.23278044450519
H         0.73276483527966    9.44945423462657    4.01566901647408
C         2.31976270439419    7.88734037404224    3.88014587122974
H         1.80747451365848    7.08205305931194    3.37293003180080
C         3.71431650145281    7.99493681911784    4.02533697877617
H         4.43837650401662    7.24856167970659    3.73068877787232
C         4.01618660533223    9.28536495899883    4.48255796324637
H         5.01226300791985    9.69563951540217    4.56825781886989
C         2.81288269848219   10.00203885017559    4.60660469969713
H         2.72520038432506   11.06148657151304    4.81630503668761
C         2.24000514952695    5.59265098875049    7.15205693437059
H         1.42084388360656    4.89219229794685    7.07505711321170
C         3.21290262533493    5.85553574087733    6.16944750853705
H         3.29017656774018    5.35134510454036    5.21343687424802
C         4.18713270398663    6.71703801676123    6.73983349743328
H         5.15897116411034    6.95208761475837    6.31876244221269
C         3.79310950487934    6.97765186462101    8.07848117643223
H         4.41350946087026    7.42378251561937    8.84143762282637
C         2.60180544215364    6.27301498189601    8.32529216680016
H         2.10714131421390    6.18255454838596    9.28186908895866
B         2.66090135106008   10.53318366116107    8.48148553785287
B        -0.78155561185280    7.31984126624663    6.22411383419974

