38
CSD_code = JIZSIW | q = 0 | S = 0 | Stoichiometry = C17H13Cl2FeN5 | MND = 5
Fe        1.84019703518815   10.63910766851342    4.04794254858646
Cl        3.83692645726117   10.19462414271006    4.36765757939039
Cl        0.29471777497397   10.11678582577766    2.77157657380249
C         0.46651623996711   13.64729474098722    7.06365439995978
H         0.13955425930187   14.37259904562561    7.79256925944329
C         1.79942474788966    6.01121690261924    4.32968882393109
H         2.22403899895637    5.49161201648674    3.48411242773242
C         3.69150145802721   11.35541126192133   -0.14114831078091
H         3.95335321145268   10.46360357039185   -0.69021019108486
C         1.78059638063648    7.39005068294310    4.34679101506628
H         2.18872111056596    7.95568996960834    3.51817177313340
C         0.78012849090464   11.36918382057806    6.40068506843921
C         1.27633988380594    5.29180422403165    5.39426209068730
H         1.29409817325702    4.21258645950705    5.37722947987497
C         0.70751450992562    7.33926596312321    6.51005869859467
H         0.28734501910618    7.87764945308357    7.34440986471848
C         3.02108969456122   13.65464298128759    1.26380254255983
H         2.75224690839390   14.53267925059872    1.82890441306883
C         3.91490880916881   12.60496382852180   -0.70083619602113
H         4.35088881276691   12.68558816234041   -1.68510976091696
C         1.23620494547576    8.07128792657400    5.43978048625896
C         3.13535375121106   11.24655227626306    1.11608434039570
H         2.95949940650199   10.27277355092409    1.55665312346879
C         0.35025648427723   12.29484934270215    7.35287717750783
H        -0.05815040075937   11.94225951375800    8.28444838017306
C         3.57763706227933   13.74987141824970    0.00603462905111
H         3.75096256837441   14.72278833263612   -0.42930455520020
C         2.79333743524099   12.39638655597025    1.83447622185362
C         0.99485691504786   14.08762683833538    5.85813773984279
H         1.09086533287769   15.13402672848455    5.62414779746297
C         0.73067029688892    5.96108801990738    6.47985716622634
H         0.32072780164765    5.40133873576885    7.30731451996951
N         1.94825990164542   13.36419114696577    3.71554394432352
N         1.29888443870643   11.80977142254853    5.21868979791785
N         1.23569063951302    9.45456602294610    5.42947478077120
N         0.75102253480852   10.03030114130909    6.49538673088646
N         2.23817340637316   12.25411717399759    3.09348918797834
C         1.41463950378130   13.13694388200198    4.92629643092803

