59
CSD_code = JIZWIZ | q = 1 | S = 0 | Stoichiometry = C25H31NPPd(1+) | MND = 5
Pd        0.27125448093629    2.92043774152650    3.71745672296425
P         2.15256837831611    4.13824749824391    3.47298714312305
C         2.39946290919471    4.93692737553495    5.07371831770690
C         5.57092226834358    1.15488945617972    2.89932164148082
H         6.35741458801028    0.43109285690375    2.75196714242193
C         3.26962349315289    6.36188024480484    6.77565036289030
H         4.33479558116949    6.16038807997658    6.89205159543880
H         3.05741816590696    7.32423911087371    7.23438417875910
N         1.16575158154528    2.19529246289628    5.58873452702445
C         1.39267069223720    6.48097119559482    2.28029926174742
H         0.54006674396803    6.38455697749117    2.94487185297557
C         3.29357630728355    1.83073010372720    2.59744192290165
H         2.28394964214727    1.66047875341942    2.21511570969909
C         1.74096266217505    2.94991024790649    6.44193745194136
H         2.01325321230251    2.55753081214835    7.42285964343476
C         2.38409724721623    5.50118938643692    2.30125501616007
C         5.83570769850641    2.33008864159652    3.58548022566048
H         6.82668238715086    2.51772372394906    3.96997027433193
C         2.89873654433729    6.33643338917955    5.28458240890911
H         2.09747806653116    7.04701540961998    5.06269607317561
H         3.73623482753492    6.58290168800226    4.63049983908008
C         3.56083756839197    3.01494619872921    3.28184039921116
C         0.96817076858731    0.77298939636318    5.89755310629626
C         4.83401881824362    3.26525463572549    3.78008497587894
H         5.03602334940823    4.18192234850371    4.31552673284309
C         2.13992112504771    4.32106651395925    6.24554205744131
C        -0.82314068353969    3.65284406295900    2.10605741849774
H        -1.24346516269071    4.58799842127739    2.49081484993226
H        -0.41769968671439    3.72456218717163    1.09933032554288
C         2.09992929009253    0.18089190440565    6.74686474233067
H         3.06966538286259    0.47127159003000    6.34635668851146
H         2.02851593462296   -0.90268327762501    6.71971077418687
H         2.03873596219210    0.48256022691567    7.78898669620559
C         4.30059331155957    0.90346885957601    2.40297953217361
H         4.10058838558883   -0.01273581024249    1.86819741726146
C         0.93606388917419    0.02170864004492    4.55861421552878
H         1.94316109051781   -0.03350975330814    4.14623760349047
H         0.27537197788995    0.52580775593485    3.83510064991838
H         0.56796766167049   -0.98976113150522    4.70738174842869
C         1.50405543512441    7.55735813790743    1.42258465108850
H         0.74052010460245    8.32019321615132    1.40736031082817
C         2.59806712929949    7.65144272266087    0.57435149007936
H         2.68386026924381    8.48958287758864   -0.09962152180952
C         2.45563838897273    5.22273472661667    7.40958241579635
H         3.00550485342022    4.70807145532013    8.19707389183080
H         1.52346191674153    5.59395537416702    7.84363116932163
C         3.47355927964311    5.58986104249244    1.44379152601973
H         4.23281633687503    4.82074759449789    1.45015177565711
C        -0.36834775692267    0.64003990651792    6.63893753612023
H        -0.31012806277803    1.12457754354260    7.61123867272394
H        -0.61006844457289   -0.40802775936492    6.78780826171682
H        -1.16829909660682    1.11032157001650    6.07063287556292
C        -1.44155551303591    2.44035430208992    2.50131315300836
H        -1.40496724084733    1.57074764571007    1.84641225829551
C        -1.85932941149070    2.30800153303361    3.81670078253659
H        -2.29336050591247    1.36957608965662    4.14054569320846
H        -2.17936538444642    3.19415392716618    4.37410797961964
C         3.57565504916070    6.67010906741143    0.58339914358128
H         4.42139619268221    6.74447110187235   -0.08286331068159

