30
CSD_code = JIZXOF | q = 0 | S = 0 | Stoichiometry = C14H10PtS5 | MND = 4
Pt       14.08817141248107    1.32655506706623    1.05045735198258
S        13.86312140534857    3.40979032257140    1.98951769743319
S        12.77301041780213    3.16355235260935    3.67242634264064
S        12.88302856947329    0.31929286395039    2.71617140089092
S        14.50570704853617   -0.62442756846026   -0.17528066663341
S        15.34754646123318    2.00281645920542   -0.81062574980156
C        12.38681679308036    1.50167414683007    3.82125011498955
C        11.59343464284042    1.10585363245001    4.97003504374740
C        10.86701998475812    2.04905127831243    5.70530620403921
C        10.11162185304349    1.65975756156561    6.79232390508890
C        10.06257808960043    0.32646672557275    7.16933082768443
C        10.77860123159518   -0.61715479720820    6.44991531900561
C        11.53710179207386   -0.23593858616055    5.36191012559481
C        15.34442786167758    0.36670905509273   -1.26992432534157
C        15.98517859849042   -0.12748143220580   -2.46221535380144
C        15.92737435794452   -1.48713030443098   -2.78712180496810
C        16.54092438397185   -1.95442306076743   -3.93069941993164
C        17.21990698852565   -1.07900495225933   -4.76549785467396
C        17.28378755679682    0.27071795878820   -4.45173000144384
C        16.67269648229582    0.74718386198308   -3.31067346680390
H        10.88990606015973    3.08641765822061    5.40689592688615
H         9.55354375118333    2.39945868957335    7.34625834371718
H         9.46866537715252    0.02513063433514    8.01884359890815
H        10.74780651327896   -1.65653565116615    6.74012631260626
H        12.10201533691472   -0.97188319386148    4.81115902472447
H        15.39655415629358   -2.16185408242163   -2.13203222030791
H        16.49126167620049   -3.00488534524986   -4.17506067486905
H        17.69886200409970   -1.44827356230438   -5.65990096623009
H        17.81269156707587    0.95204310308717   -5.10106623745406
H        16.71743762607045    1.79622116528626   -3.05869879768212

