67
CSD_code = JIZYUN | q = 1 | S = 0 | Stoichiometry = C23H33N8NiO2(1+) | MND = 6
Ni        4.60632797153937    4.34924846090722    2.78221567330959
O         4.97309230473703    3.48529337894824    4.56553504705453
N         1.80502857464684    4.58711298465625    2.80381194941509
N         2.83512949670978    3.72091000801223    2.85804260304697
N         4.01987931168016    5.69954293679190    1.38631245282199
N         2.83411340981544    6.30781419922089    1.58116230734269
C        -0.69037204520305    4.62768679748637    2.86278093873759
H        -0.78952131120640    5.30046085425972    3.71403817028129
H        -1.48420380174444    3.88891339589492    2.91756711675620
H        -0.82079741231383    5.20335026804196    1.94679199848963
C         0.62182550666111    3.93777632429159    2.88213826958131
C         0.92235404592312    2.59723909112694    2.98696799049250
H         0.22907800083946    1.78668473901835    3.07263579463646
C         2.32088400524053    2.50165858599130    2.97240104350923
C         3.13990967682823    1.26941240427459    3.06839945953174
H         3.29786765838143    0.83969466837782    2.08062498733237
H         2.62927799712498    0.53450570255860    3.68510861414298
H         4.10626751743123    1.50630522015341    3.50614060996230
C         2.06706623861906    6.00140330324241    2.76024082842319
H         1.12657018948724    6.55159444220436    2.74398857851531
H         2.65632209605667    6.26497164409551    3.65545968210808
C         1.31452231095307    7.98132328978655    0.52138947248074
H         0.42541062075137    7.35185550985450    0.49773506130528
H         1.32495211685224    8.58946925944899   -0.37809862565619
H         1.24724612131874    8.64402714323650    1.38347349411440
C         2.54944306911211    7.16306134882490    0.57483721434527
C         3.61190996567570    7.09447089392242   -0.30096453995904
H         3.72997007009725    7.63927626748249   -1.21425573780781
C         4.50904988825653    6.16479013346679    0.24223694916405
C         5.81520804382384    5.75369602230787   -0.32976764785571
H         6.59473425528929    6.45461127282136   -0.03134593758866
H         5.76086847449337    5.75200511733508   -1.41529387793793
H         6.08494832757610    4.76289905810624    0.02016492106373
C         4.53432089495653    4.36105520303117    5.35625410186532
H         4.62317722850968    4.11726102124843    6.43314040664186
O         4.03583011823205    5.42540954627778    5.00292268382742
N         7.43822136054971    4.18928073348542    2.69588416301236
N         6.37112982276771    5.00006378923459    2.84923455954712
N         5.36050373617594    2.74944556464094    1.27439598700922
N         6.61394996374795    2.31643840557407    1.49886886346173
C         9.93142255118341    4.30050713609212    2.54247017210280
H        10.15646371950260    3.63203362258142    3.37305974803714
H        10.67858467356965    5.08838415691098    2.52939885606729
H        10.00888506411239    3.73887096255866    1.61222876609252
C         8.58614585582640    4.90598886752338    2.69204441900100
C         8.22607367021959    6.22531543632157    2.85672089952117
H         8.88028462384531    7.07053134468178    2.90955411670636
C         6.82852787612383    6.24184603889490    2.95951675941230
C         5.95410963748000    7.41575447778684    3.20460039062482
H         5.60750798612320    7.85128159188406    2.26809295380396
H         6.50765274224527    8.17634018155837    3.74884843354253
H         5.09365533025142    7.10681684115116    3.79692256642661
C         7.28830946372660    2.75350796594836    2.68973943543821
H         8.27218519160435    2.28784165627177    2.74885703880671
H         6.67864992894580    2.47734499793495    3.56302985257339
C         8.38464601634939    0.86860132827122    0.48818555985172
H         9.17771873579641    1.61581583608003    0.46929717469636
H         8.47882947146632    0.25062147695559   -0.39958381889175
H         8.52605496616795    0.23549568154311    1.36353576837130
C         7.04517448500205    1.50507418999944    0.50294420696643
C         6.00779811676618    1.42221748127197   -0.39959330246666
H         5.98993722451772    0.86279839968882   -1.31140131400593
C         4.97665663003532    2.22083780508813    0.12211798099631
C         3.64743191763874    2.49773934932962   -0.47795382946354
H         3.08672271271444    1.57392094037324   -0.60754246526870
H         3.76630915434720    2.95576973371326   -1.45832922207481
H         3.08776643404188    3.17092350993678    0.16536322660321

