49
CSD_code = JIZZIC | q = 0 | S = 0 | Stoichiometry = C26H14N4NiO4 | MND = 6
Ni        1.89816797813472    2.24513888688947    9.23794653365866
N         3.65604039042640    3.70478089680085    9.35111456162421
N         2.18595613416558    2.51064278759110    7.49536228233810
N         1.39995575164485    1.99863210225729   10.93582974926797
C         1.49033266099659    2.17206310329575    5.24785973850899
H         0.89852189303793    1.56905802694111    4.57638834732072
O         0.75096662306519    0.62709161721877    8.47886211769864
N         3.31020747193955    0.54010690311249    9.81506019680260
C         1.76792342690092    0.87775827661058   11.57839214139320
C         1.48355888825160    1.83119883757425    6.60590703804499
C         3.11743441966066   -1.16833644753517   11.53297343523417
C         2.93996031917365    3.54997804048330    7.10058170020921
O         0.78512802610829    4.03391945466125    9.50205913492308
C         0.50022876738056    2.80183482470377   11.47579317767789
C         1.18952135609697    0.48979584847231   12.80250347852032
C         2.97482582806577    3.98660843687582    5.76208638774318
C         2.50620429011567   -1.54792383101224   12.76373277931751
H         2.78755626381542   -2.49559529217844   13.19917021666893
C         3.69844078449953    4.22284267033324    8.10719888419679
C        -0.09796202950035    2.51310444245581   12.70839961915117
H        -0.81973633842811    3.21746132016037   13.09266806278293
C         4.43414599975034    5.37579560331391    7.76690355910971
C         4.58170004283280   -1.47352388648581    9.66439839919446
H         5.29849757679438   -2.05147830499880    9.10235754424924
C         2.21573677077993    3.25960348032156    4.82536896153904
H         2.20975844749884    3.56761155551832    3.78979850631875
C         2.76401247742480    0.06658750879453   10.95298642657029
C         4.43952453800686    5.80982152900491    6.40892241587246
H         5.00756818304763    6.69455963113271    6.16104807184913
C         1.59636445126491   -0.74997627524836   13.37707353880533
H         1.14601311989689   -1.04766297014704   14.31254207672923
C         4.30296769951053    4.33773214748937   10.30285904035811
H         4.25215905409505    3.90682568725157   11.29402512325656
C         5.03856518121624    5.50832057032110   10.07905611410293
H         5.54221600024673    5.98669449581888   10.90441287877430
C         5.11646152191231    6.02618832780545    8.80837720836966
H         5.68687264525288    6.92032129254864    8.60193570035211
C         4.05834026323952   -1.95008143202090   10.84242740219719
H         4.35441783660021   -2.91058685298936   11.23892444945986
C         0.22762219428567    1.35076238789871   13.36436022415245
H        -0.24446734898608    1.08516290196492   14.29917699408260
C         3.75372826599477    5.13914176309892    5.44944399690358
H         3.77168936418719    5.47636450678181    4.42353299178960
C         4.18571260053210   -0.21564423054537    9.19276443444256
H         4.60826464627812    0.18198776933282    8.27955137265652
O         0.14430674127097   -0.14705840767742    6.47405364625129
O        -0.48611037262986    4.94798494266705   11.09427494692179
C         0.20750371897879    4.06600445604913   10.62687364281192
C         0.69459547516585    0.64358089728298    7.21536074979706

