76
CSD_code = JOBKAN | q = 1 | S = 0 | Stoichiometry = C20H48B2O5Y(1+) | MND = 11
Y         2.52307467152207    3.89492546016256   18.59277052519671
O         0.54426813781506    3.54435470321887   20.23902595556756
O         3.51839209003828    4.30098763673739   21.06036110099254
O         5.07096562381276    4.12029347755668   18.40663213866073
O         3.09616349128526    4.57369116502661   16.07054435481481
O         0.26920803680776    3.81268040317048   17.25412057540671
B         2.80328199683604    1.44550697431634   18.40540283219513
H         3.79628134407675    0.82647878190623   18.23599401580814
H         2.66187666325606    2.22981814981586   17.39709502636168
H         1.83993503721866    0.75685403178003   18.48721735075618
H         2.93843421697345    2.09491445084503   19.50817800214115
B         2.12240151235380    7.30419590016248   18.89390787306646
H         1.30753613977048    7.52360631236492   18.07706662240936
H         1.77591795482964    7.37344250312860   20.01344870958480
H         2.27590815060874    5.56792017608333   18.72033790627174
H         3.22194006569647    7.63771145127956   18.64968310442879
C        -0.22396873826678    2.33841526856783   20.42831203680640
H         0.44937087018376    1.56007536523668   20.80690178633643
H        -0.61891432667931    2.01608997312718   19.46111561145246
C        -1.32455702419422    2.66007324860549   21.43959624475792
H        -2.23309475965422    2.98673131207240   20.93301698107616
H        -1.56491282527767    1.80492882848609   22.06553977441127
C        -0.71214759135695    3.81938699840615   22.22155091304126
H        -1.45508697369143    4.44243133033572   22.71186542701226
H        -0.01329564004649    3.44402512122349   22.96982135434165
C         0.02977260633807    4.56049164223613   21.11592009517950
H        -0.65893097100804    5.20845159379791   20.55668589145054
H         0.87118651383927    5.16004832425639   21.46869689018776
C         3.42839455473579    3.47825212185016   22.22597377848203
H         4.34467595546755    2.87906378551972   22.31860975081482
H         2.57951808663749    2.80545177418151   22.09857289828030
C         3.28487222360223    4.42918691629041   23.42722397210031
H         3.92331899354209    4.10952959271135   24.24774924591359
H         2.25934909402847    4.45936373951648   23.79000212344499
C         3.71366536311944    5.79570608421815   22.86745300364856
H         2.85969789383957    6.46581386770581   22.77734271819100
H         4.46591388702671    6.28085524405616   23.48371905046218
C         4.25797920678909    5.44995136742218   21.47926610172577
H         4.10158883242355    6.24025460970852   20.74454197663643
H         5.32513324354272    5.19287285410993   21.53838272723461
C         6.05331549941130    3.13952358031202   18.80226418257045
H         5.91527481551777    2.25264117887513   18.17356371419679
H         5.87680000751830    2.85800128856025   19.84506857634031
C         7.43154897227158    3.76872199126864   18.58979533132738
H         8.16607083700418    3.03756345129360   18.26316281402465
H         7.78836084549537    4.23532148742483   19.50804410085562
C         7.14254822396762    4.83566304352539   17.53675948223176
H         7.87283544508302    5.64008560471237   17.53431290668523
H         7.10201474365728    4.38757636651531   16.54344366032881
C         5.75983290032464    5.30449993810407   17.97118727951292
H         5.83942589892102    6.01018595726268   18.80913454035418
H         5.17040269389163    5.76120634678369   17.17447968299811
C         2.55137890015146    5.66123720923987   15.32074959572839
H         2.17619866026564    6.40425578996490   16.02527257874286
H         1.72863752515136    5.29203886980741   14.69265783216943
C         3.70259232867750    6.16816289352565   14.44703478524115
H         3.33870658211519    6.59431461127895   13.51589749612261
H         4.26810492635054    6.93443643568911   14.97547547397021
C         4.55727929089823    4.90898154580615   14.22280213281470
H         4.53459755159046    4.58277500486963   13.18560415205290
H         5.59509595240821    5.08776371634390   14.49730081575938
C         3.90899704480588    3.85596578793533   15.13805831266815
H         3.27470138769483    3.17628518645488   14.55307409629511
H         4.62995761904697    3.26577756584768   15.70551381978914
C        -0.70099171503724    4.86155667462021   17.21193332298069
H        -0.66669451207046    5.35200964310521   16.22920147084945
H        -0.45541200594856    5.58830947444493   17.98754413477432
C        -2.04451819716422    4.15904221006042   17.40970378335444
H        -2.24100433042334    4.01771770788983   18.47180904016763
H        -2.86596824900927    4.72528959759815   16.97915004510864
C        -1.82594707979235    2.80778043590221   16.71072956499534
H        -2.35850294188463    2.75763191725331   15.76353605379427
H        -2.16494618199865    1.97941264518951   17.32970241614013
C        -0.30379139200790    2.75396580148070   16.47904709241482
H         0.15239868813731    1.81575416527325   16.79904291913722
H        -0.07231434308160    2.92001233467359   15.41839634718185

