132
CSD_code = JOBKUH | q = 0 | S = 0 | Stoichiometry = C66H55BCuN6P3 | MND = 4
Cu        9.68436152932101    2.58555248914691    1.88183121537713
B         7.86713420781010    4.80607626684368    1.03597205261410
H         7.12945012433459    5.67206410477835    0.71272325633913
P        11.53792488653082    1.57853024122431    1.14289733507534
P         7.76874163099057    2.42473123440347    4.72183449661909
P        12.22521846391746    6.72204230066810    5.15071071057479
N         9.40486624392207    3.24997381111890   -0.13011323639832
N         8.86462187288788    4.46542306999149   -0.09542625135174
N         7.63125301114386    2.57023822640720    2.13583950317824
N         7.11325053043325    3.49156770012041    1.31961058698881
N         9.62195070213584    4.37783788944728    2.74754710942723
N         8.66260452997368    5.18444357483277    2.29589675336881
C         8.90801275885318    6.61618313950376   -1.35713239428343
H         7.82644027424793    6.69755280584150   -1.45475839758537
H         9.37530615448887    6.99342175800321   -2.26307306977718
H         9.21655617580810    7.23483549664177   -0.51543960975775
C         9.30938203998842    5.20344697973968   -1.13215103839039
C        10.16545159537432    4.40800577658863   -1.87183943852905
H        10.70314213924107    4.68337441774048   -2.75726011879703
C        10.20552917030180    3.17998941444469   -1.18984296247538
C        10.90516977671523    1.95306202935853   -1.56265739023192
C        11.50160402114079    1.09650777989162   -0.62026710098764
C        12.09172107601383   -0.08675434588984   -1.04846631880431
H        12.52892128469398   -0.75777112979046   -0.32279138232547
C        12.12913033644793   -0.41674804866367   -2.39176260147528
H        12.59193745192424   -1.34050432496153   -2.70638801212309
C        11.58071191850424    0.44387640246870   -3.32710815576584
H        11.61667712905713    0.19879274186449   -4.37846770072502
C        10.97232922904634    1.61357876339983   -2.91225019685543
H        10.52108083044552    2.27371378401090   -3.63887954028482
C        13.02064608251844    2.63720125524948    1.18451429256806
C        13.65844777878065    2.81705703161988    2.41145158916292
H        13.31376047453501    2.26579855463053    3.27403252709164
C        14.72288909204999    3.68849873951019    2.52713507347046
H        15.20763972109978    3.81929082086576    3.48390868550786
C        15.15983130789562    4.39946972473475    1.42010557913303
H        15.99311486714077    5.08088503899227    1.50769547851055
C        14.52394758682668    4.23528460199382    0.20147932405919
H        14.86021322332191    4.79046419017445   -0.66248449891000
C        13.45610268742252    3.36330776870753    0.08067431165550
H        12.96661417628430    3.24636968538733   -0.87502305294574
C        12.08819516713225    0.07985954442713    2.01628305559721
C        11.09451491239356   -0.61817267011636    2.69652010357140
H        10.07628376788784   -0.24985671802649    2.65827730981272
C        11.40763136318337   -1.75745626960022    3.41436138546188
H        10.62969468110067   -2.29162794842777    3.93934472311039
C        12.71940997787106   -2.20071630274208    3.46364385547908
H        12.97021484937297   -3.08703594237564    4.02791732007878
C        13.71437897007341   -1.50507413628520    2.79389751811451
H        14.73675332359654   -1.85231494717993    2.83611368640999
C        13.40521592094601   -0.36700112880747    2.07140426741735
H        14.18212950463993    0.17802719444188    1.55294369900358
C         5.23396662676784    3.76209766579751   -0.29314115966948
H         4.84668716952536    4.66976123937583    0.16710375170023
H         4.40047510346619    3.15958278664015   -0.64444226254803
H         5.84702069748866    4.05082886724296   -1.14601699671966
C         6.03947481038457    2.98827244206581    0.68632343305082
C         5.86093126285011    1.68306915971130    1.11615104716060
H         5.08404542590518    1.00494112337103    0.82522560428815
C         6.88915493239972    1.46478738335915    2.03597958907871
C         7.18686164488667    0.35601490414485    2.92866648281910
C         7.60841703649713    0.66317053293902    4.23397294366610
C         7.98435410505527   -0.37201833470385    5.07951272819016
H         8.34657655834376   -0.14783312041526    6.07322927882735
C         7.88582831590023   -1.69060476231481    4.66613741561742
H         8.16649221029651   -2.48605552429213    5.34237654116516
C         7.41673689417685   -1.99117820046647    3.39826785909581
H         7.32857056069743   -3.02041146350472    3.08151420248969
C         7.07335551851389   -0.96909873628767    2.53025951412794
H         6.73276351148738   -1.19214432943355    1.52935836963373
C         6.04354010845441    3.02155924620556    4.50048340095823
C         5.88071335065495    4.39853530301241    4.60730811435721
H         6.74443219230567    5.01082614815124    4.82923536534499
C         4.63793029139406    4.97704149198650    4.43238586567946
H         4.52144865296731    6.04838630668169    4.51947742407457
C         3.54149003266286    4.18189491515522    4.14330285021020
H         2.56901774521724    4.62973054644695    3.99706031348204
C         3.69455346699825    2.80938370019609    4.04585335252835
H         2.83914078443021    2.18530148239182    3.82792120728528
C         4.93711042444624    2.22794256839936    4.22512063513677
H         5.03885450294552    1.15460975766320    4.14484848139671
C         7.65842278951325    2.23352598647088    6.56065364828751
C         6.57219753919187    1.66342857277142    7.21669201955467
H         5.74549378632372    1.26749344269112    6.64307905716998
C         6.54863075285491    1.59977270936239    8.59709667029961
H         5.70240234578711    1.15385905596386    9.10085155191934
C         7.60431499326856    2.10817637268391    9.33822641868496
H         7.57974834958804    2.05769429819427   10.41743039919718
C         8.68680918459255    2.68108224839208    8.69351027565086
H         9.51285886553335    3.07812188462528    9.26706615535506
C         8.71007361930910    2.74461866399667    7.31141361928062
H         9.55216558962620    3.18670272537117    6.79651722453112
C         7.52210322054012    7.31617809005318    2.93397481711017
H         7.73576996297019    7.86187415364074    2.01591065839158
H         7.56533819301075    8.00832087721807    3.77109285133555
H         6.51572280601853    6.90878453696151    2.85718916066814
C         8.51132496703027    6.22576943133220    3.13755015923284
C         9.42046916995846    6.06999718920384    4.16876708214434
H         9.52117993013226    6.69707225520746    5.03305315658319
C        10.10362906038850    4.87734124718457    3.88121163026256
C        11.14250233987451    4.18973072534923    4.63587095029130
C        12.13927154870514    4.89376816919830    5.32392746274794
C        13.07367271524203    4.19289537605734    6.07941846310386
H        13.84108085556138    4.73365946738037    6.61537176954592
C        13.03343560764278    2.81308140559316    6.15654103013125
H        13.76006039233137    2.28610181306736    6.75827103427888
C        12.06685610194408    2.11116065323098    5.45256782378970
H        12.03687573166808    1.03123693368714    5.49241316338999
C        11.13372170883012    2.79581532228995    4.69819524950043
H        10.37444742203446    2.25254647060823    4.14869066971796
C        11.56966817103440    7.22474701157785    6.78593322263903
C        11.73930239690587    8.55549037642118    7.16403066969595
H        12.30141780922275    9.21950834691232    6.51980618548075
C        11.20500820193933    9.02098328101172    8.34991874566655
H        11.35313007602279   10.05117181720866    8.64091455379433
C        10.47229283101341    8.16852758003309    9.16130859532780
H        10.05122014547879    8.53233991444476   10.08720099518715
C        10.27403629579551    6.85323673885007    8.77724255084514
H         9.69063183508827    6.18925380701901    9.39912760609797
C        10.81658969413914    6.38136505612924    7.59494346935692
H        10.65215326257402    5.35489593902478    7.30030902185584
C        14.03121587437443    6.93371891560122    5.42418899325018
C        14.63971850787812    7.25392139693623    6.63224125571717
H        14.04264405106742    7.38798387449991    7.52350646611869
C        16.01459194683400    7.39752410679877    6.69984471375990
H        16.48048180916084    7.64394331802446    7.64353705358284
C        16.79373646473334    7.22404947461642    5.56837037015014
H        17.86646156546110    7.33738018846553    5.62769536447923
C        16.19317482281637    6.90896269336767    4.36024115214501
H        16.79861773334776    6.77828015436524    3.47463137901347
C        14.82022974609821    6.77198002517369    4.28812420754091
H        14.34074273982880    6.53123037020600    3.34796956774908

