53
CSD_code = JOBNOE | q = 0 | S = 0 | Stoichiometry = C21H27BFeOP2 | MND = 8
Fe        5.61987340916297    4.29553949954911    6.07075848742147
P         4.65315047296738    2.66888757533470    5.02415529138037
P         7.51251077611377    3.21508005237188    6.49401348563976
O         4.26120214385339    3.42333865172015    8.45042617835793
C         6.18051110452590    5.56669259295073    4.40257839239871
H         6.63242446623981    5.29540051318180    3.46497007187654
C         6.86476220425117    6.03464806688690    5.53667463808736
H         7.93286176314415    6.13770396215547    5.63274914137943
C         5.90686898670192    6.40418402755767    6.51006167770838
H         6.12164057580622    6.89282233895183    7.44551196934507
C         4.61967182481278    6.21775201061972    5.95181384050920
H         3.68617530045657    6.50564206087243    6.40554707143215
C         4.78727438269784    5.69464042738977    4.65398264439536
H         4.00206924697931    5.55200620816698    3.92825681464169
C         2.82146754627424    2.79048339114294    5.12542640355158
H         2.34840564916156    2.02638134597590    4.50929364266446
H         2.49378700201587    3.77543959566906    4.80108211899988
H         2.52626581676573    2.65465735239298    6.16404267993784
C         4.87254406431588    0.92204932358119    5.51399278584136
H         4.15692301690359    0.29218201286924    4.98393647905764
H         4.72736819902831    0.82243297452989    6.58890808909894
H         5.88683947756895    0.61432489491959    5.27006184133799
C         4.91700407447669    2.54391770887434    3.21571616243914
H         4.38657986795355    1.68104631751778    2.81328229374569
H         5.98621692610098    2.43334408175570    3.04278406214489
H         4.57263966667048    3.44988143243955    2.72252547714367
C         8.40970502077346    4.23116227380151    7.73069180180776
C         9.79686505369497    4.30180949693688    7.66372294755460
H        10.30973268923170    3.77295316228509    6.87436647190191
C        10.50761747341760    5.04789210020506    8.58759105764129
H        11.58523736100754    5.09866994455859    8.52420564674226
C         9.84110561514217    5.72935862901227    9.59166890235005
H        10.39512960172951    6.31212414772443   10.31329316155796
C         8.45903725871462    5.66562627538424    9.66535094191074
H         7.93463871312423    6.19848405741615   10.44631640625557
C         7.74814162670465    4.92450711075441    8.73964642680736
H         6.66806600787202    4.88845740004290    8.78525915962511
C         7.40807704036077    1.68835987413235    7.50598909471323
C         6.96780680444644    1.70135718776669    8.82717750866711
H         6.67482086408441    2.63133948411124    9.28821072586225
C         6.91254683086708    0.53153063502072    9.56183068113586
H         6.56650750547399    0.55783787467636   10.58522142635367
C         7.30149799393623   -0.67041334777198    8.99330109692160
H         7.25689754961974   -1.58295737154636    9.56988791664743
C         7.76035859875956   -0.69252208256885    7.68723896908226
H         8.08101946638457   -1.62413474234828    7.24292947616269
C         7.81566817341619    0.47757304431778    6.95139145760447
H         8.19377930525737    0.46626003961474    5.94008776568551
C         4.86972322385902    3.74487038474043    7.52678769331044
B         8.57637051493785    2.88453686189324    4.91328250355671
H         7.88147130672870    2.21201669090576    4.19720855290228
H         8.80750135623165    3.95192497176768    4.42903036124062
H         9.56173907927839    2.30249747777753    5.25786010544278

