30
CSD_code = JOBPEX | q = 0 | S = 0 | Stoichiometry = C9H14N2O4Pt | MND = 4
Pt       -1.10826252162579    0.71115611621041    8.94790341938536
O        -2.69285576910752    1.21776559269372   10.02792262605218
O        -0.80644056480237   -0.62119993412191   10.38603213412718
O        -3.71272238775620    0.68085278054067   11.91469483839320
O        -1.69727674190690   -1.30582982303242   12.29017413358933
N        -1.42695545542842    2.09760115688895    7.46298731314667
H        -2.28060120032094    2.57259831862785    7.76518651509847
N         0.54021463668388    0.18467157834402    7.83664888378240
H         0.95701787910199   -0.57502094249505    8.37960855592992
C        -0.32993263183749    3.07023385377817    7.40301116753168
H        -0.16828279491358    3.46798910488569    8.40912362612329
H        -0.59626045471586    3.90434450732787    6.73874819508330
C         0.95719653987298    2.42895959643835    6.86765347917317
H         1.72383628403344    3.20791414542077    6.81939285172295
C         1.49579388207292    1.29493126402421    7.74997003219413
H         2.44440518147743    0.94805134584633    7.31670637693116
H         1.69143941818762    1.65945821545301    8.76262091808562
C         0.15754944189636   -0.32271868577680    6.51413585235515
H        -0.59526963515023   -1.10447814899332    6.65059785957785
H         1.02836602227618   -0.76377811315289    6.00905575159343
C        -0.39124568788830    0.79864980410288    5.62208748460463
H        -0.62842896760421    0.36413424444942    4.64645978496440
C        -1.66793205972173    1.45204471749277    6.16757875177000
H        -2.01243341406661    2.19210938586506    5.43165764610582
H        -2.45407006617264    0.70270259685025    6.29795815892488
C         0.68326400443764    1.87430142629017    5.47055246733852
H         1.59230054768227    1.44960451850386    5.04243388192331
H         0.33979970109830    2.66717425969601    4.80467221595229
C        -2.81372206494555    0.51039562504616   11.12292500654909
C        -1.71209112085666   -0.56971850720418   11.33000007199060

