62
CSD_code = JOBQIA | q = 0 | S = 0 | Stoichiometry = C30H25Cl3N2PRe | MND = 6
Re       -0.42030112746308    9.67640991438792   14.64779700514569
Cl        0.72893279440323    8.09272210948149   13.37771897902132
Cl       -2.39571412093090    9.01422123594924   13.67319953976516
Cl       -0.60415775338130    8.20590815960003   16.41222038021060
P        -1.63104572600563   11.16574618284126   16.15786124578245
N         1.41452079117023   10.38498215078351   15.31531494577714
N         0.02359196579829   11.13987767021541   13.31188444198529
C         2.12563909521363    9.91063832779406   16.34069391401240
H         1.68229614322394    9.08360122233777   16.87914437996987
C         3.34602075726939   10.42620900923244   16.71061786225335
H         3.87411326271581   10.00035954212624   17.54760191786831
C         3.88676550609469   11.49423024339447   15.98900481148505
H         4.84303829030964   11.91213194800181   16.26241459590320
C         3.17819359166636   11.98937655058081   14.92366939901338
H         3.54860951489379   12.80548293508184   14.32356536448992
C         1.94014798697185   11.41582045003473   14.59515109197832
C         1.13472811967272   11.81421275003575   13.50299399681169
H         1.43915189716385   12.60447470713001   12.82882134789999
C        -0.76835352634250   11.50220924630033   12.20722612197664
C        -1.17586161963128   12.82208667641285   12.03060061538192
H        -0.89111335075471   13.57109785511019   12.75616985676904
C        -1.97532570666591   13.15681607446999   10.95380103511219
H        -2.30163689421565   14.17890407696355   10.83093092240041
C        -2.35782196695570   12.18734640923827   10.04211719307536
H        -2.98416337367689   12.45240591498968    9.20360894665241
C        -1.93475397076424   10.87793875967615   10.20584678393050
H        -2.22354223242391   10.12183709781286    9.49212409353899
C        -1.14420834527331   10.52952748274388   11.28371839309004
H        -0.79547942946521    9.51568118199675   11.41444779072900
C        -0.39828346413072   11.86532792957736   17.29061840765177
C         0.37638285514751   12.95240082697003   16.89113598472259
H         0.15706996331344   13.45107452155961   15.95595914379024
C         1.42268604810468   13.38759322806342   17.68263360450358
H         2.01541982967876   14.23545238926642   17.37152933483107
C         1.71656178119230   12.73168044972208   18.86733984500896
H         2.53520789256306   13.07313868509423   19.48308385152128
C         0.96880627709331   11.63140614290453   19.25383726607075
H         1.20839722110878   11.10925998932962   20.16814384642224
C        -0.07959163265769   11.19142372770265   18.46648426573255
H        -0.65087858282896   10.31867460452264   18.74942637667226
C        -2.52985711979370   12.58629491146113   15.45585504645936
C        -2.57642255166587   13.83639800259247   16.06381426178742
H        -2.02184694205316   14.02320744369477   16.97249474654512
C        -3.33486478569565   14.84664176295066   15.50019151447322
H        -3.36370160285344   15.81898778543942   15.97036296618694
C        -4.05939244449781   14.61412779743149   14.34206069394946
H        -4.64920479315255   15.40817248001733   13.90839858369780
C        -4.03356973177902   13.36294252154309   13.74847571252104
H        -4.60364186002773   13.17395714477495   12.85145208703948
C        -3.27227617248623   12.34986599531553   14.30209845190811
H        -3.24837711091655   11.36834334645425   13.84723806499223
C        -2.93606110224203   10.51612576282241   17.24527865901248
C        -3.64450391108325    9.37528864006515   16.89005841614264
H        -3.38976505377489    8.84397965599172   15.98462646831305
C        -4.67139047928873    8.92340127230032   17.70051344666387
H        -5.21450148615564    8.03139512212636   17.42729465980373
C        -4.99923210044502    9.60975569212112   18.85725288024505
H        -5.79774649169681    9.25301750844382   19.49098874443926
C        -4.30531598301932   10.75910272516420   19.20253687002233
H        -4.56513020124580   11.29942288956465   20.10123170993121
C        -3.27943161040518   11.21749578721761   18.39863346461075
H        -2.73871522714789   12.11438737325427   18.66808365232437

