65
CSD_code = JOBTIG | q = 0 | S = 0 | Stoichiometry = C24H31BN6O2W | MND = 6
W         6.48267852450215   11.09367231428520   12.73982801560518
O         6.49891744893299   12.21889671657466   15.65044017552884
O         3.40624275608994   11.14469308464924   13.25992271516351
N         6.70977435653107   12.97280167653925   11.60420172769030
N         7.51063359351732   13.04335574693299   10.52776086785181
N         8.63087290135691   11.00342537803422   12.41074350068074
N         9.18461289576836   11.35086859408878   11.23563799432143
N         6.46414363949636   10.25070314607628   10.73505466874819
N         7.29705121267344   10.68648840209421    9.77349600993713
C         6.12472649899125    9.58889444871658   13.87406502210774
C         5.69252463626997    8.74213124633570   14.80850608127465
C         5.31320934413173    7.94057355925029   15.65538928684314
C         4.85239107365818    7.00730720128794   16.66388925942892
C         6.55872935862580   11.90017572204606   14.53931756564312
C         4.52518431196202   11.19463313866188   12.96761168953092
C         5.01528604417366    7.65313217079937   18.04744095177913
H         6.06003828261631    7.89059227454523   18.23583037160835
H         4.66607914085713    6.97116409248849   18.82006277560603
H         4.43945299264441    8.57389199777064   18.10541595543610
C         5.69014382320552    5.72272014587531   16.58211210328173
H         5.59147348132820    5.26507908903020   15.59996542590968
H         5.35408096557269    5.01147487912969   17.33374904714771
H         6.74163837187209    5.94223004807150   16.75489849511171
C         3.37299037197882    6.68671103477815   16.40553851465512
H         2.77707585436646    7.59581683272911   16.44066464596848
H         3.00437713061773    5.99599896965200   17.16116224596151
H         3.24733401279856    6.23229365884799   15.42506705168766
C         6.15474532775706   14.16885644478879   11.78250881559365
C         6.61341361804849   15.03637296317365   10.78830480077738
H         6.35439586015159   16.06718824391405   10.65552334559171
C         7.47459632178897   14.28452659757242   10.00810100508840
C         9.61071818236627   10.63047301553828   13.23112622169144
C        10.83254045522898   10.74332808308674   12.56216993704345
H        11.80642862543469   10.51947773658321   12.94781524424224
C        10.52266313528801   11.20659905152462   11.29651806634439
C         5.72008417430779    9.27383493476318   10.22087665954671
C         6.08643844367907    9.07637163667339    8.88674440260865
H         5.67587793244489    8.36446435833559    8.19978327691366
C         7.09040321124226    9.99394902518306    8.63656224214910
C         5.20550720220254   14.45921057231445   12.89014993083406
H         4.33267888578878   13.80823159504131   12.82832761392791
H         4.87875250476184   15.49471742886646   12.83417166777829
H         5.68081861205791   14.28966615532069   13.85699904327770
C         8.24439597002091   14.70749693429200    8.80942564353477
H         9.31385067255852   14.58548569205199    8.97398720673055
H         8.03860663294973   15.75332966002204    8.59755374067377
H         7.96648702035432   14.11121860346412    7.94171180968055
C         9.36111768403652   10.17287262356994   14.62315721227445
H         9.05494142287352   11.00953377165781   15.25171831291658
H        10.26578428418675    9.73590044415956   15.03853469234915
H         8.55705679919896    9.43466949155357   14.63815392835376
C        11.44414967606341   11.50912067880127   10.17042604425176
H        11.21442943759023   10.88873873330005    9.30549164230495
H        12.46799101512209   11.31578575087807   10.47913406952214
H        11.35828522735975   12.55218941116798    9.86987915149849
C         4.68694456208809    8.55217519123126   11.00905194878814
H         5.09876569124232    8.23562645200795   11.96918914258936
H         4.33836259027339    7.68289821025564   10.45704264509367
H         3.83643853728049    9.20357660145935   11.21185073749911
C         7.84140221886241   10.22296796895337    7.37471854438401
H         7.70944733388498   11.24594364852407    7.02581200655406
H         7.47924130265116    9.54145600846769    6.60966310345802
H         8.90657488848713   10.05162974426267    7.52263620046281
B         8.30446373828972   11.81139755723645   10.06216271156748
H         8.95483777755099   12.05799341069527    9.11054506759404

