27
CSD_code = JOBZUW | q = -1 | S = 0 | Stoichiometry = C12H10MoNS3(1-) | MND = 4
Mo        0.77311018073573   -4.94779996012937   21.06012617932462
S         0.46126482133720   -4.21755377571090   23.08693672559311
S         0.48043264995299   -7.10556344474372   20.97822397120921
S         2.79289052968776   -4.43672163551467   20.42745822800750
N        -0.49723380001696   -4.12115189835051   19.80376866648690
C        -1.40238245316958   -3.29137647010223   20.49145970322272
C        -1.22251828945750   -1.90657545340577   20.51849029079930
C        -2.10592825238314   -1.10794330996079   21.21943059744259
C        -3.18024186384948   -1.67302835533480   21.88762558753670
C        -3.37138165744768   -3.04505923539551   21.85340350680238
C        -2.49639420534376   -3.85346592083153   21.15280265707910
C        -0.57256785204025   -4.16680601693119   18.43187426411811
C        -1.54581504000087   -3.46749956217191   17.70123903387499
C        -1.58539866344927   -3.55114528020821   16.32362953971588
C        -0.67222577645299   -4.32991120418274   15.63401367956921
C         0.28539418375974   -5.03846630854337   16.34655016485855
C         0.33844446432732   -4.96554182084709   17.72088083722206
H        -0.37173746163008   -1.47966112511438   19.99950991553717
H        -1.95208626202513   -0.03823659708890   21.24950089774275
H        -3.86423049365547   -1.04493463839693   22.44044312613068
H        -4.20622934945652   -3.48776036322605   22.37806092833189
H        -2.62959953021546   -4.93063594592567   21.11960380594823
H        -2.27309888474648   -2.86098969212206   18.22474904913676
H        -2.34392752620886   -3.00003498329848   15.78327437932413
H        -0.70805874767934   -4.38966540228511   14.55561854216077
H         0.99912179318293   -5.65696319163942   15.82063025325997
H         1.08649748624466   -5.52890840853827   18.27369546956547

