11
CSD_code = JOCBAE | q = 0 | S = 0 | Stoichiometry = C3H5AuClN | MND = 2
Au        1.16525676837456    1.57533226046665    4.40278142745956
Cl        2.43007733691245    1.57536074390658    2.59651923730599
C         0.09698697687544    1.57553611589971    5.93604035551941
N        -0.57864324275989    1.57541428213263    6.87752874390676
C        -1.32979214286684    1.57537270121853    8.05334494630110
H        -1.96644033965215    0.68485284388257    8.04476773742578
H        -1.96648693724838    2.46585960602507    8.04480789114373
C        -0.41774629631216    1.57536885225810    9.27707412758129
H        -1.02339380638113    1.57533634663729   10.17864759656312
H         0.21622110609685    2.45847236859282    9.27946294556745
H         0.21626057696126    0.69229387898005    9.27942499122578

