14
CSD_code = JOCBIM | q = 0 | S = 0 | Stoichiometry = C3H5AuN2O3 | MND = 2
Au        5.72174772520087    3.11196269324006    9.34491088087523
N         6.10193126720586    4.58007504211824    7.10767624732446
N         6.02341721509242    0.85243306673352   11.31901173395946
O         5.35438649165654    4.79085823351145    8.11660682160675
O         6.12729209796295    5.36268724284561    6.20643589163125
O         6.76902045073092    3.54617129112768    7.13574013742769
C         5.86359952268191    1.74600510436500   10.60224551717164
C         6.14845768009087   -0.18615620170301   12.24025769738296
H         5.90563940075412   -1.12064339505245   11.72485029266091
H         7.19372558324414   -0.22148561462344   12.56304404306156
C         5.22094755962819    0.03146390385245   13.43275659243149
H         5.34527791180952   -0.78511514721110   14.13793608017567
H         4.18382221046714    0.06124679697003   13.10914211119444
H         5.45703488347029    0.96689698382614   13.93348595309625

