25
CSD_code = JOCBOT | q = -1 | S = 0 | Stoichiometry = C9H11MoS4(1-) | MND = 4
Mo       -3.47069219454805    4.06574512523686   10.33260265184803
S        -4.72651036444528    4.00559210227136   12.09963952716474
S        -4.54045586508227    4.88939818231276    8.62728292086493
S        -1.65291211956077    5.20914835977374   10.66960440512259
S        -2.94361300827621    1.79466900576538    9.93084925544080
C        -1.80812850612181    2.01730774997480    8.57744351164002
C        -2.28785639035941    1.98865836904524    7.26304593111770
C        -1.38123314348953    2.14582375880291    6.22593384933094
C        -0.02303301179033    2.30324923210056    6.46143181659254
C         0.43107091021864    2.27703714236797    7.77084586879185
C        -0.43844133703210    2.12313355706854    8.84064030456275
C        -3.74446724510260    1.80678679447423    6.98264525537306
C         0.92687182206817    2.50469795211265    5.31691926497519
C         0.07590212052528    2.09332484433354   10.24389848158249
H        -1.74718769849109    2.14615230021326    5.20792475262866
H         1.48912138788977    2.38132979418033    7.97048618340945
H        -4.14525159561144    0.97663149121429    7.56515761204435
H        -4.29174992610569    2.71023509538407    7.27562362963927
H        -3.91790230437429    1.62487635915185    5.92431534457355
H         0.67717864029252    1.84639999256071    4.48615141879991
H         1.95252083318996    2.31215771739117    5.62400734981465
H         0.86496078508030    3.53333899785529    4.96004818990790
H         1.15951752389150    2.00224304421348   10.26000754809347
H        -0.20389102518539    3.02102035554063   10.75544839266769
H        -0.36761828757323    1.26504267665231   10.79694653401849

