78
CSD_code = JOCCOW | q = 1 | S = 0 | Stoichiometry = C31H41AgN4P(1+) | MND = 4
Ag        7.06957615137703   11.02981557197166    5.72383279141831
P         9.23079044447977   12.14727406544236    5.10703643159872
N         6.83910432677525    9.33142583376884    7.42262055907669
N         5.34818824927511   11.65795228751168    7.13329995917770
N         5.81215347478886   10.23387072373017    3.84238214972131
N         3.57687796703593    8.74409267760059    0.63303139065828
C         7.70056426732555    8.39685370525259    7.79966049233169
H         8.56697226162039    8.26609541604634    7.16510216876210
C         7.53028896216827    7.61416160770798    8.92913682221096
H         8.25839419160489    6.86239218271934    9.18663148511856
C         5.50601528083982    8.80382048936619    9.33130291472265
H         4.63796891848592    9.01506229089122    9.93510066342390
C         5.74949646376399    9.53459927340169    8.16886014676274
C         4.81505781562334   10.58298629113138    7.72639630000217
C         3.44240871915309   10.45713248128497    7.93130644461124
H         3.03908497710398    9.56320230594704    8.37982219765821
C         2.60359172777467   11.48081846942633    7.52776505026181
H         1.53704539418114   11.40569583153093    7.67442292791644
C         3.16318691179048   12.60480996813415    6.93828839041495
H         2.55101886908841   13.43441508467114    6.62329520666133
C         4.53579018879970   12.64034807655813    6.76012734654441
H         5.01324905108536   13.50418207040817    6.31571761443772
C        10.18317412188545   12.75643476372704    6.62273338311336
C        11.62477288609159   13.19109373668751    6.38197998235119
H        12.21969304624640   12.36975084966463    5.98959883216559
H        12.06295954730797   13.49443363433327    7.33198383106176
H        11.69297660127563   14.03433533825789    5.70268851519294
C        10.18021329903789   11.54219119397040    7.55745903507622
H         9.15626975826159   11.20988676055723    7.75124855650309
H        10.64106629950680   11.80066457133231    8.50882924039701
H        10.74034611741817   10.71535319920097    7.12218580940143
C         9.37133027564335   13.87931763241440    7.26527084466362
H         9.42770794919678   14.79590527607128    6.68312523976258
H         9.75532370686035   14.09333827064165    8.26125203997127
H         8.32433399719497   13.58103503488796    7.36060538133954
C         8.97385900809918   13.48885811082091    3.79321062954344
C        10.05433731249265   14.55341343366307    3.63465108625463
H        10.15585069439154   15.15634750988365    4.53329691679633
H         9.77243884390067   15.22061493411942    2.82054058772470
H        11.01916385078984   14.12326926905552    3.38327972939562
C         7.64845469372487   14.16533123133228    4.15814606596109
H         6.86018139373916   13.41270097180885    4.26826753516335
H         7.35200649445017   14.85586333920686    3.37042346156136
H         7.72995699598729   14.72576410113441    5.08640079300457
C         8.78072341454473   12.72713148109015    2.47940020087652
H         9.71260268567654   12.28640628622156    2.13247136128411
H         8.41454665723673   13.40177390029694    1.70758107761899
H         8.04704944583044   11.92907162709783    2.61061017105800
C        10.39155928953423   10.94062276437296    4.38049684259968
C        11.59160719917858   11.24405902137889    3.74332985300090
H        11.90614944589113   12.26862966444876    3.62374321614659
C        12.39407604048506   10.22983011694698    3.25071148703247
H        13.32259957430591   10.47591940536682    2.75774196719401
C        12.01489999614877    8.90462466193834    3.38800276604818
H        12.64706884704700    8.11899296058840    3.00379778882575
C        10.82012760849418    8.59143765335303    4.01551089416089
H        10.51701524420747    7.55999174352934    4.11961883442927
C        10.01630759932939    9.60457777050625    4.50329012466572
H         9.06898502034219    9.37387405767691    4.98959715756410
C         6.36954988558975    9.51445938894702    2.86299702186840
H         7.43589801306876    9.34783387698645    2.94698659703368
C         5.68397871884120    9.00115650389758    1.79053236688895
H         6.22749797995022    8.43763705862764    1.05241374693790
C         4.29560268055872    9.21984685156245    1.66880278198874
C         3.71546082173185    9.97495483424649    2.70955013145829
H         2.66262806512700   10.19762551775972    2.71897774976275
C         4.49740523521031   10.44074995665207    3.73724358891922
H         4.04378053735419   11.02202968973600    4.53012487453938
C         4.21210183050604    7.95813698263656   -0.39957910955115
H         4.97767557947634    8.53905562022010   -0.92093274490677
H         3.46908385745661    7.64544170982675   -1.12755613387012
H         4.67505894663025    7.06148211356918    0.02033037912304
C         2.16084115444174    9.01380215162531    0.53801874872970
H         1.61883014578011    8.57467881651340    1.38010669938408
H         1.76914993037374    8.58312050419435   -0.37900330357474
H         1.96839843597434   10.08954120480476    0.51726533206425
C         6.40856626368967    7.82858244077738    9.71533239803186
H         6.24243234235834    7.25111179534635   10.61176818284641

