23
CSD_code = JOCCOV | q = 0 | S = 0 | Stoichiometry = C10H8Cl2N2Pd | MND = 4
Pd        1.71091177960875    7.04446528391044   -1.76494300907001
Cl        2.06125979811055    8.21008744797129   -3.61336458699983
Cl        1.09778841461815    5.32053525615467   -3.01088101316757
N         1.43831945211447    6.09480528133879   -0.01317640027342
C         1.72165798519667    6.84458280964580    1.07618632709949
C         1.59386053879666    6.31400168230892    2.36056864407676
H         1.82412728588994    6.91600585765063    3.22415999663145
C         1.17128570398786    5.00819247441951    2.52134301078307
H         1.06926143955850    4.58530200416209    3.50882263337820
C         0.88196490324739    4.25468210511514    1.39019901135608
H         0.54894511846792    3.23295683286717    1.47096893355191
C         1.02917255112702    4.83652158673148    0.14477021688554
H         0.81804940797019    4.29468709896645   -0.77122334104990
N         2.23844836005968    8.53085910284774   -0.51758298194788
C         2.16101122287275    8.21063091052422    0.79403323037651
C         2.48494024244833    9.14654825147618    1.77718516952678
H         2.41755119720408    8.88608260727321    2.82068356604455
C         2.89237787127696   10.41387522232867    1.40636744761258
H         3.14569501493547   11.14707760127085    2.15641805277211
C         2.96879037684812   10.72280368210947    0.05375078872763
H         3.28253414425996   11.69880405595135   -0.27843134181596
C         2.63242435348328    9.75323839537010   -0.87253997506105
H         2.67272283792442    9.94015444961489   -1.94051437943835

