59
CSD_code = JOCCIQ | q = 1 | S = 0 | Stoichiometry = C24H31AgN2P(1+) | MND = 3
Ag        1.54171085187525    2.60889125752167    9.76495547586319
P         2.55177837043680    1.65789247420207    7.73487280126146
N         1.69824252562777    4.22502757443086   11.43870471771891
N        -0.22665299642981    2.24873520987006   11.27223857375952
C         1.36890778960721    0.39199562871743    6.97239149625604
C         3.16334345135867    2.96988340385360    6.52316626940738
C         4.06567252849964    0.74589617031249    8.18179572959444
C         4.50158841258388    0.90093504592697    9.49655050052425
H         3.92201730469923    1.53303340099991   10.17366434486479
C         5.64621660332043    0.26944616080321    9.94485941990840
H         5.97260718656961    0.40095728220940   10.96526478280487
C         6.37049679122722   -0.53544048597138    9.08051407501172
H         7.26386266102846   -1.03248180659182    9.42510818326732
C         5.94284254595247   -0.70384192894679    7.77370285706086
H         6.50354804448989   -1.33354085565856    7.09966394548677
C         4.79954465506948   -0.06833691983674    7.32247183575978
H         4.48609339610419   -0.21360434499492    6.30130066403677
C         4.07821926060091    2.46528662280983    5.41264224157576
H         4.99766866269907    2.05336987501247    5.82144726601646
H         4.34554263895625    3.30274083361226    4.76986213871127
H         3.59667140986777    1.71435338449944    4.79413306372984
C         1.94537769744963    3.68767084726267    5.94520809461469
H         2.25449174787455    4.61162731416155    5.45976892103654
H         1.23784237221444    3.94124048533480    6.73955346898844
H         1.43923106564689    3.07617700385700    5.20261231737858
C         3.94459517101102    3.94001515015552    7.41521093471117
H         3.29553650455361    4.34312470030459    8.20003417647487
H         4.32216743796849    4.77210275723180    6.82449865645090
H         4.79329935424089    3.44130416380206    7.88295974196346
C        -0.02721830390254    1.02093135312116    7.01012181977026
H        -0.22969042098262    1.45956548768786    7.99541154400413
H        -0.78111659658200    0.26059114710743    6.81436361364341
H        -0.13654820603090    1.79904463690949    6.25976025703973
C         1.40817679152685   -0.78248420524258    7.95457756523411
H         2.35109005748199   -1.32135129466958    7.88969779507909
H         0.60146686867945   -1.48069132615564    7.74057835848924
H         1.28947721175850   -0.42255977022491    8.98275062651269
C         1.66459384657135   -0.08792967066057    5.55592200894801
H         1.60933422018005    0.72694623403557    4.83870414520045
H         0.91587819060029   -0.82679428581635    5.27283789576544
H         2.63674163311167   -0.56559141664510    5.48158682917826
C         2.48377998562975    5.29215449123088   11.36049183105710
H         3.34708596263215    5.19952201033467   10.71433715115489
C         2.25149004499263    6.45979871232566   12.06738515444183
H         2.92562597959396    7.29543922176858   11.97509015188555
C         1.13245365971579    6.52298879060850   12.88312504893040
H         0.90183601239594    7.41993577001975   13.43683220291239
C         0.31451185656221    5.41086965736728   12.97805574172543
H        -0.57282555447507    5.43840769425236   13.58944955043697
C         0.63505594815900    4.26643371615184   12.24946270403931
C        -0.18585979590652    3.04588128381214   12.34526997766002
C        -0.87845125010278    2.73562734791449   13.51476444386942
H        -0.79716392275326    3.37003248497279   14.38239066507906
C        -1.64688033634808    1.58575808461794   13.55967823849184
H        -2.19018544552833    1.32612532066219   14.45507083961753
C        -1.70255659665146    0.77726734692059   12.43512032724554
H        -2.29575748566343   -0.12225638168448   12.42062482421475
C        -0.96815210894443    1.14925274280037   11.32184287254521
H        -0.98425569082659    0.54602441158516   10.42363912159069

