57
CSD_code = JOCDOU | q = 1 | S = 0 | Stoichiometry = C15H33N5O3Tc(1+) | MND = 6
Tc        3.18180824447613    2.60756902986059   11.85320182565403
O         2.84202309190866    2.64974127179098   14.81526696177933
O         2.71116424067169    0.42948207984208   13.59145209302220
O         5.13055389448671    1.44042109806151   12.92038346458198
N         1.74103422041934    3.31756567718167   11.31182415988384
N         3.18116603444303    3.41190816963794   13.75408843232239
N         2.56719066136318    0.74948726266015   12.33174881170172
N         4.38331170531163    4.50582340171623   11.69849625478041
N         3.42129645790098    1.43475129323518   10.00599651281579
C         3.47597966806557    4.64216209190048   13.95333186668095
C         2.26460872141348   -0.11819760251323   11.43216954034687
C         3.88170582318627    5.45883494473016   12.73939459144987
C         2.36935186137978    0.35591198198250    9.99414904560196
C         3.38862737273488    5.26262603016496   15.30236112549297
C         1.86693800108607   -1.50965562257023   11.78376966684816
C         4.98683335871249    6.45313732498292   13.11301305590509
C         2.62289557648162    6.17963247226768   12.24517737879536
C         2.81361034709037   -0.79622326706097    9.08822334506017
C         1.01895233029323    0.91579985382492    9.54460755420281
C         4.54463371324875    5.09270630349900   10.35131103044736
C         3.57864898291052    2.17820460142029    8.73836075394718
C         5.79205553102585    4.57037113240785    9.63907695895074
C         5.05137954602648    2.41321338182407    8.39772485334953
C         5.92365486377205    3.05300175414206    9.48314039236965
H         2.67059572042132    1.68926647446928   14.44230906502067
H         5.32110678309069    4.23994036391999   12.00828881875132
H         4.29804178959134    0.92392911219039   10.14393510086701
H         3.06307678070541    6.29622942594830   15.24111109200556
H         4.35816860868636    5.23848780477494   15.80009233618144
H         2.68914174927333    4.69180971718328   15.91041878515111
H         1.65257386147172   -1.54913455281900   12.85049241637941
H         2.66393606540077   -2.22032576981383   11.56748933194454
H         0.98330608218874   -1.80684899280295   11.22473621216590
H         5.34656694202320    6.97919139993580   12.23265679252235
H         4.61501464536838    7.20063158097727   13.80561529589580
H         5.83016372919117    5.94559465075745   13.57940137133713
H         2.85647225218697    6.90460846435174   11.47282422616207
H         2.15097420329856    6.70525499900616   13.06918783174097
H         1.91847012925735    5.44596965018939   11.85201827151896
H         2.95286658185832   -0.45772507399814    8.06501515708439
H         3.74724326681385   -1.23553740959700    9.43693275526913
H         2.05692470413093   -1.57373580164130    9.07084458541676
H         1.01815974720950    1.15210549658298    8.48566277541589
H         0.78831351156854    1.81774296687331   10.11186433870068
H         0.24285712407809    0.17985759765096    9.73032378631109
H         3.63939071069502    4.88614858028091    9.78145606180949
H         4.65309704711903    6.17834346539727   10.41897134546878
H         3.02507024083051    3.11311050735751    8.82382030790754
H         3.14366459295653    1.61451512866331    7.90988294901593
H         5.82955518887626    5.02908089724318    8.65001992301413
H         6.66968265236079    4.92624014828029   10.18799477528302
H         5.09827986794950    3.02900844945812    7.49872442184361
H         5.49568077852596    1.44588362813570    8.14468007200086
H         6.96245662374295    2.85670017970668    9.20724424338879
H         5.76485152009499    2.55837018903424   10.44375827173954
H         5.89813754942206    1.59651104384583   13.47227207295330
H         4.54753470119990    0.83570101346855   13.42688553374090

