54
CSD_code = JOCDEK | q = 1 | S = 0 | Stoichiometry = C14H31N5O3Tc(1+) | MND = 6
Tc        0.87709849933269    0.78801141147474   13.35544148983579
O        -0.84932254713076   -0.39607169061200   15.22681303735176
O        -0.04179360628286    1.92980108097675   15.95379409406593
O        -1.61926742539616    1.17954703702495   13.18176721529534
N         2.51082212766473    0.51567587567331   13.71269469144735
N        -0.03289418916866   -0.74512465961053   14.26775300697742
N         0.55828183551383    2.23589117084288   14.78479507894957
N         0.85501080419449   -0.76408324243020   11.82826456614799
N         1.06969733604496    2.67799224401056   12.28844878977008
C        -0.02036732701785   -1.92703786914295   13.75867043908553
C         0.98140707844906    3.42912669101716   14.58812004205589
C         0.84220246361198   -2.10499905210374   12.52038644759116
C         1.59338755407780    3.72172045457335   13.22376508130876
C        -0.80131292005459   -3.04895626774455   14.34987199625516
C         0.90129679316913    4.47907273294365   15.63756986774140
C         0.24203946262571   -3.16065955850007   11.58902182901633
C         2.25228160799224   -2.50515107294565   12.96164370974307
C         1.17938159982960    5.11721237876547   12.74486082789288
C         3.11514075312853    3.61563225755926   13.34955510749709
C         1.88588416137751   -0.61133169962887   10.77998857036099
C         1.70176190694273    2.57826826851679   10.96271123799836
C         1.46209174351282    0.33580260060002    9.65310561297417
C         0.84613584065723    1.68332807418369   10.04906706950994
H        -0.36841388094260    0.94938814556389   15.85646640132099
H        -0.05107918130831   -0.70918514159566   11.35487777120905
H         0.09564322763197    2.94012846282519   12.11971693078707
H        -0.17820088073716   -3.93342976679008   14.45874787645571
H        -1.16445614348251   -2.73964612043111   15.32844001188044
H        -1.65800946148223   -3.30987245459203   13.72937406265649
H         1.76971616164453    5.13007826081094   15.60887544956128
H         0.00992048464878    5.09197841958733   15.50285837509367
H         0.83299876984786    4.00064219097121   16.61274187372474
H        -0.78707024301149   -2.91857243112898   11.32697745449494
H         0.25113561597152   -4.13502345121776   12.06645194485389
H         0.82176821754747   -3.24232330481232   10.67312930628549
H         2.71710944815788   -1.68156966440223   13.50264386194586
H         2.19058939996143   -3.36340266440626   13.62377936020761
H         2.87422757631460   -2.77459854007937   12.11455923125514
H         0.09543667060798    5.21669495642479   12.70618850455208
H         1.56655032771464    5.88109057616214   13.41069296197957
H         1.58218266621731    5.31696490630478   11.75552908098240
H         3.39275583527023    2.58626231754384   13.57679477277332
H         3.46457088323878    4.25250739098690   14.15590592905296
H         3.60210676551714    3.93286163418645   12.43279110539958
H         2.10463367279485   -1.57632770938262   10.31485662177615
H         2.79490831419476   -0.25676281201814   11.26779869043049
H         1.80414177855545    3.56885097024516   10.50832115576559
H         2.69658778616681    2.15154030247729   11.09157970173566
H         2.34496486315282    0.51950132261339    9.03983333313464
H         0.73195811726413   -0.17339463201785    9.01788136021723
H         0.63972791939310    2.21488001296388    9.11873571848690
H        -0.12614298540685    1.51181568268367   10.52003320346528
H        -2.34466865073747    1.80214210816051   13.12397619134644
H        -1.77275662777952    0.65561386691924   13.99763194829669

