105
CSD_code = JOCFEP | q = 0 | S = 0 | Stoichiometry = C39H59N2O2ScSi2 | MND = 5
Sc       12.33483647092631    2.49997210127777    8.44352811366373
Si       15.25648559216125    4.60177190803246    9.17212346379133
Si       12.54281149007022   -0.14821658588894    5.86307344191102
O        13.00174200336987    0.56152473125421   10.01150335225335
O        11.02231933966248    6.38903837460845    6.84063040229332
N        10.87297444848205    3.33107126758007    9.88056506378463
N        11.55052326696431    4.24595229581424    7.23829469712413
C        10.41666213185676    5.55109516134512    8.97510897910082
C         9.33954107615379    1.58108580619977   10.61135837772172
C        11.03804441332086    5.34268939570316    7.70456386571266
C        10.25791203955110    4.52347445147555    9.95934746032316
C        11.51858192490804    0.84210228351563    7.09532956923317
H        10.98755947405602    0.11303728963322    7.73001861745036
H        10.72512974520387    1.33350908829923    6.50319490938173
C         9.40713619935886    4.85118840313398   11.05762259048788
H         9.20980560509997    4.08554488903298   11.79355311155215
C         8.59012381513045    1.69641030991366    9.30055389297648
H         9.27101174977952    2.15703487933330    8.56614418494402
C        11.19844339534825    2.22913552361129   12.05385351743217
C        10.47720402131189    2.37514903302379   10.85381752332839
C         8.91246546154239    0.69634486119900   11.59119880885344
H         8.02981962622938    0.09783666102809   11.42597048631424
C        14.52907431634219    3.13599640263689    8.23656091008843
H        15.22728804361580    2.29080151364458    8.34678650298989
H        14.58739714680046    3.39831348940066    7.16448144222830
C        11.83309978136651    4.45043937689014    5.82175409763817
H        12.85927517473007    4.14415281655556    5.59326363844297
C        10.73202830579776    1.33496548529299   13.00711027612577
H        11.25030269125322    1.23188595639684   13.94777429718914
C         9.59206217088714    0.58292763712059   12.78919724925677
H         9.23571056719241   -0.09312500977010   13.55257285189585
C         9.10164413774434    7.11007940483129   10.30057226675941
H         8.68563403101782    8.09429558054179   10.44746322085748
C         8.85813850762080    6.09086621332886   11.22569860340635
H         8.23483448567406    6.28468049266755   12.08746794413905
C        10.87266922639398    3.67838386634292    4.94425073628076
C         9.56530879517008    3.44400804804110    5.35288996224572
H         9.23800770196141    3.79151197621852    6.32311657742961
C        12.45240341232741    3.04326400093072   12.29622919614904
H        12.92598076772640    3.21802199867883   11.31199806831601
C         9.85798805416036    6.82476293391030    9.19667131449305
H        10.03035265791464    7.58316435596151    8.44915805127707
C        12.22422988115814   -0.61191604000035   10.24513686075938
H        12.29099514963681   -1.27757709340398    9.37570959436171
H        11.19128814040169   -0.30496883991168   10.40435497469378
C        14.36192995119606    0.18974581259790   10.25605599077736
H        14.87479117218892    1.07093617562141   10.64444510860463
H        14.83209340618820   -0.10486482039829    9.31001596289231
C        11.64274702595860    5.97572202759781    5.64092297207277
H        12.59477951074472    6.50652312334383    5.53093100150267
H        10.98893785397063    6.22319385952026    4.80053872390617
C        12.12414675994322    4.40229226408961   12.92375242102673
H        13.04354574392604    4.95034861789818   13.11808720321811
H        11.50077108434254    5.00152091066021   12.26691907488176
H        11.59662176841035    4.26324408125276   13.86616472187377
C        13.36574122289903   -1.68212029566598    6.67749617680174
H        13.94707082763824   -2.24525250040927    5.95415747240094
H        14.03877137136946   -1.39094525091959    7.47824405422911
H        12.62480518571470   -2.35863459184695    7.09344438038380
C        11.27647502283018    3.24361872270361    3.68898507512397
H        12.28540103395339    3.43817101427221    3.35460561114146
C         8.16097587624592    0.33180279748206    8.75426239213902
H         7.84571726875467    0.43409055584633    7.71804748962247
H         8.98363790861318   -0.37935879550322    8.79224705478844
H         7.32568021672552   -0.07481393718784    9.32009756599680
C        13.45981643606925    2.32148663135411   13.19307447702052
H        14.40947136103766    2.85216076657259   13.17946857258419
H        13.11736651615665    2.29601839343537   14.22547934434696
H        13.62624004385556    1.30374975875295   12.85356677467315
C        11.52690707593531   -0.82222361956931    4.37741241650622
H        12.14975348127394   -1.34678644991028    3.65891912154130
H        10.75399225968521   -1.51154657986299    4.70458851683928
H        11.03535152665335   -0.00740220693141    3.85346985631700
C         7.36171134447418    2.59836875628831    9.45535231998852
H         6.81866452849210    2.65689440107813    8.51404688909678
H         6.69299648299156    2.19813945088453   10.21554043015000
H         7.65335884927191    3.60379456767083    9.74909271671187
C        13.87518547708318    5.84405875811454    9.65741411352547
H        14.21289866687467    6.56274761591090   10.39832354347596
H        13.54217221167525    6.40942543226588    8.79118783347423
H        13.00385509446544    5.33177484029421   10.06408198764021
C        10.39557730231109    2.56762132141909    2.86352377204315
H        10.72283250538365    2.23010250334348    1.89123810885290
C        12.85787898644796   -1.26357783140711   11.47069454723877
H        12.62869125762524   -2.32402285124914   11.53694364698001
H        12.49960320239462   -0.76867128183569   12.37296374868807
C        16.14824688752224    4.02051283923571   10.76940562417115
H        16.41155523728157    4.85940157900147   11.40589777226937
H        15.52506993354029    3.34905073612398   11.35077856995436
H        17.06560684228606    3.49100370220616   10.53106361421927
C         8.68604644187697    2.76431634338091    4.52851279459014
H         7.67415180109368    2.58144420589857    4.85912554455696
C        16.56317603824504    5.62027871913073    8.19627858886080
H        16.95245138974666    6.44821944584481    8.78146387688313
H        17.40712262697735    5.00300837842096    7.90266291729337
H        16.13490489998326    6.03653135978897    7.28868200900026
C        13.96529267878332    0.89462187094059    5.11301328967514
H        14.54109727141523    0.32852441382877    4.38721475385651
H        13.57038960313939    1.76840344382645    4.60554823064472
H        14.64981531348177    1.23921171413137    5.88274069307750
C        14.34908364068258   -0.99164340363307   11.24548921470554
H        14.86272649650895   -0.74735991089082   12.17313184744630
H        14.83884171475380   -1.85908444979124   10.80557729813780
C         9.09944727063808    2.32162324965962    3.28383445341576
H         8.41386265290409    1.78791691985325    2.64260264948229

