93
CSD_code = JOCFAL | q = 0 | S = 0 | Stoichiometry = C35H51N2O2ScSi2 | MND = 5
Sc        3.98612817473552    8.71913091008265    3.89589456933472
Si        2.46422223490992    7.25139160320766    6.80577490467898
Si        2.37249948736573   11.91681653938398    3.05672902628426
O         2.75143385364954    6.75660013065225    2.61998299638186
O         6.84398046768492   11.95229942708090    4.86606275694617
N         5.49086648165286   10.16352052671245    4.81963711459465
N         5.56432630984973    8.71015200638196    2.36084007985790
C         6.28755507969633   10.94186248558566    4.15338378740094
C         7.14459908472965    9.58791982796361    0.75489179138498
H         7.03213612880865    8.69513538901239    0.15706300906562
C         2.18841807793732   10.08252082035247    3.46299714770896
H         1.56230967015700    9.65542466759379    2.66020877462869
H         1.54700768011700   10.02372495283612    4.36129908207320
C         6.70931011032630   10.81540068120551    2.79268580693940
C         6.42542816088047    9.66806281856628    1.98280625482365
C         3.95652744883146    7.24095361860017    5.65659557159793
H         4.09752369941710    6.20266391434101    5.31220546729569
H         4.83686869008077    7.44492751697620    6.29023858918212
C         7.95279381222819   10.59329679723256    0.30634791775168
H         8.45741636290727   10.48816576742494   -0.64409032687992
C         5.47640981243821    7.57208947525940    1.52207537396544
C         7.53612505548335   11.83820002274713    2.29031970978399
H         7.69716281517698   12.70351422914221    2.91434881600572
C         8.13404712811661   11.75552418209763    1.06223317859720
H         8.75401643738479   12.55738736152276    0.69333392951490
C         2.97041956426330    5.37076124164054    2.88102755503389
H         2.44900669558361    5.09388254085791    3.80560494752174
H         4.04316980632812    5.22466739690517    3.00682998450373
C         5.54534254601939   10.56030316070196    6.22329375195213
H         4.53163311281909   10.72344581601633    6.60287291571335
C         6.16564077259480    6.40628134262864    1.88805748862563
C         2.17811371962317    9.00544262911770    7.52701280536587
H         1.19334635519273    9.10017403372923    7.97343417170857
H         2.90675137062462    9.23218476691591    8.29772902701019
H         2.26451734760739    9.76145916671964    6.74872914079492
C         4.71179437084742    7.59349625696078    0.34517196673718
C         6.36094977138005   11.87610918199636    6.19183441112203
H         5.74712512437786   12.75816807772985    6.40043278031270
H         7.21337948626852   11.85755112092524    6.87700184924752
C         3.96709544812131    8.83819876609483   -0.03349454211595
H         3.21271325819074    8.62380427317800   -0.78804773365137
H         3.49141998604492    9.27547682680281    0.85186469473972
H         4.65379930117638    9.58390957749010   -0.43687574904955
C         6.23992564675420    9.52283936860726    7.07595495720248
C         0.86255232321285    6.78324072316998    5.85542372033808
H        -0.02061924681310    6.92621874116697    6.47012347837790
H         0.75278527695834    7.40196344116312    4.96799748657728
H         0.87056648510393    5.74368951869590    5.54164479143441
C         1.51995792022560    6.80646629581399    1.90675989095517
H         1.45020989245934    7.77416916146808    1.41279897807090
H         0.68359312390572    6.69030987296864    2.60959795583639
C         2.57091463842784    6.05917543164060    8.31025332015831
H         1.70247393932363    6.13946539619729    8.95741503264958
H         2.64503915490154    5.02374829518784    7.99054121545868
H         3.44901998424770    6.27637943390874    8.91158400687077
C         7.25479993534254    8.73237931947409    6.55028199688208
H         7.52940583315868    8.83906012098707    5.50982245289154
C         6.97593336094242    6.40001041710847    3.15154827637707
H         7.34599155733229    5.40045985516602    3.36979922172707
H         7.82861210843698    7.07303537930905    3.05214538589944
H         6.36707662289278    6.75661270919422    3.99340551241363
C         3.13513125127503   12.88521901594910    4.52531353495424
H         2.84084025771579   13.93000285872527    4.51061629460794
H         2.82584185082367   12.47125007031787    5.48062712384403
H         4.21802756226399   12.85216218785938    4.47960764422351
C         6.09300948552868    5.28756500613067    1.07174156915666
H         6.62931182562021    4.39094564412792    1.35059410137274
C         4.67083136857234    6.46197592740547   -0.45461214456696
H         4.10523044989699    6.48556018451458   -1.37655839153101
C         1.56637698660681    5.63136222889861    0.92933331920834
H         0.57024127323221    5.27409394935487    0.67941306180291
H         2.07511851430805    5.93047147470925    0.01498132849282
C         5.35881004741498    5.31393435830723   -0.10110450425121
H         5.32786791079502    4.44417519276693   -0.74139825137288
C         2.40123542795878    4.58915383991210    1.68425281966602
H         3.20282911811375    4.20454974622842    1.05726046880037
H         1.79360027776461    3.75273112040384    2.02442017502244
C         0.71467673723085   12.79556322714032    2.63274320451160
H         0.86655502323662   13.83286305642891    2.34884781496866
H         0.21116120260471   12.30315046531988    1.80579922122870
H         0.03428005301051   12.78434482179090    3.47905981856245
C         5.90384827968852    9.39010602786096    8.41682316727504
H         5.12822387224879   10.01430169702684    8.83580449043446
C         3.51906285972069   12.18585083437791    1.54215085818016
H         3.78778857689687   13.23279656542605    1.43723646131140
H         4.44330155228428   11.62131470239160    1.64456652859882
H         3.04085975389877   11.88191170500600    0.61561603133147
C         7.90307328611097    7.80590096316067    7.34791885773380
H         8.68456020273647    7.19035206077450    6.92733690979023
C         7.55219423765273    7.66788329593996    8.67996377174574
H         8.05609907644870    6.94234912272248    9.30097200497988
C         6.55471240638222    8.46591145609570    9.21415385770706
H         6.28123041347602    8.36682186344463   10.25417637749709

