56
CSD_code = JOCHUF | q = 0 | S = 0 | Stoichiometry = C19H32ClNSi2Zr | MND = 12
Zr        6.66300569249357    4.41177645162923    4.56767775117926
N         7.36049200685976    2.66001002393611    5.44634034988989
Si        6.64792248646384    2.70512639102496    7.01851368167700
Si        6.18867721031997    6.43293059828789    1.45192302218707
Cl        8.66290733702379    5.37684614724389    3.78597343843713
C         6.21355779353137    4.55173321743754    6.90682554184264
C         5.02729450309801    5.08132087486595    6.34022800430695
H         4.04277580893970    4.63662043734214    6.43293148321499
C         5.30588851733742    6.35460336416479    5.80414549444528
H         4.57335916014123    7.06752697120115    5.44531478031362
C         6.67547145535267    6.62207685034027    6.00664597887121
H         7.17451789216158    7.56334998249185    5.81086784097439
C         7.23794508486242    5.51444789358167    6.66770749145867
H         8.25937631307420    5.44716644754492    7.03179719724452
C         4.54821545221475    4.78099564848625    3.26940960463209
H         3.81913824815268    5.56049040677345    3.45414383973177
C         4.44017417382858    3.44480570772258    3.69493180899082
H         3.62769418751825    3.02714057935618    4.27548559161975
C         5.47768871311791    2.70647050843937    3.08604479999368
H         5.58365210494392    1.62983452751390    3.13269562709841
C         6.23466733467541    3.59439733120653    2.29467257260149
H         7.01976336045752    3.32473492888291    1.59800817181521
C         5.66768485430967    4.89691164242238    2.40491024269652
C         7.62436680789138    2.38941707298665    8.64257253197463
H         8.03942596729427    1.38772065866402    8.67519532457012
H         6.96645748024674    2.49346359991992    9.49943882437558
H         8.44067185272977    3.09274110229475    8.77221814699603
C         5.06186225677854    1.62516940849491    7.11677209156149
H         4.51614301740020    1.63396440649397    6.17737847578327
H         4.39664574201426    1.98048760714944    7.89611512713272
H         5.30617699499213    0.59319885123944    7.34430251423506
C         8.56188053187105    1.91318379803293    5.10146294026123
C         9.79069865663572    2.57969694149322    5.74978285071014
H         9.82864338776353    3.63120889364049    5.45871079722116
H        10.70879740094127    2.09250286771728    5.42941929095373
H         9.72060171027026    2.51662765450672    6.83182333518425
C         8.45296916474991    0.45421726849648    5.57249273415080
H         7.54845622517393    0.00663178822961    5.16709495340072
H         8.40166208337621    0.40879576761204    6.65539886250874
H         9.31392261205259   -0.11985404271311    5.23855312643707
C         8.77412826135877    1.90244726530165    3.57547254414129
H         8.86755743537122    2.92323680949312    3.19743375482582
H         7.94958379905037    1.39270969324703    3.07963190903551
H         9.69290111125060    1.36710670980532    3.34145167349546
C         6.49892073466264    7.87100173830252    2.67524329410079
H         7.38775093930672    7.68851552818646    3.27388578924882
H         5.65715956145447    8.01434377021788    3.34868074230368
H         6.65029048605784    8.80627331472276    2.14473085568209
C         4.75248235733454    6.93634504543564    0.29219916338850
H         5.01585187738531    7.81614931670766   -0.28479074924876
H         3.84867591732735    7.16633593485846    0.84683016295729
H         4.51278932201652    6.14311505300374   -0.40791615360017
C         7.74169199038753    6.06337168812213    0.40793094632880
H         8.57163136213929    5.75622407267084    1.03665745117150
H         8.05251605796216    6.94647979198901   -0.14079631869581
H         7.55651720378246    5.27745369171937   -0.31807130787353

