42
CSD_code = JOCHEP | q = 0 | S = 0 | Stoichiometry = C16H14MoN2O9 | MND = 6
Mo       14.07555813169017    2.37279309807304   11.61179664145386
N        15.36362497080269    1.91366851661865    9.92061971166436
N        12.87387366884823    2.56750652215118    9.74333778378572
O        12.49004506253204    2.12544033781356   12.47043551691351
O        13.56109031041824    0.41127478241828   11.09115473932260
O        12.44089896685206   -1.31673543255809   11.94034667266412
O        11.68755951548580    2.07927485864406   15.83384292488336
O        13.55625778273328    2.85164159876289   14.89194192125741
O        10.44070228302980    0.88647662246981   10.71952478260985
O         9.06405987263798   -0.46842904870997   11.81782746574958
O        15.25882818342090    1.80231385440069   12.60623097840958
O        14.19243582183539    4.01443639608172   11.46206636225849
C        12.20244762747547    0.86939481290456   12.96740346623274
C        12.77360611169948   -0.15048839249241   11.92074869128892
C        12.93809278868012    0.66700385324726   14.31875640594965
H        12.59060486199943   -0.23645191890762   14.81479911134776
H        14.01191172213326    0.62971437299358   14.11287564543122
C        12.64323704498016    1.90919608673253   15.12141982215699
C        10.68149431854500    0.65090077170119   13.11341063232365
H        10.46627406923968   -0.20021077577415   13.75747781065682
H        10.23121110541064    1.54785898805496   13.54715465912665
C        10.07980681137317    0.38956931428721   11.75932158404313
C        16.63688701657232    1.59078754961817   10.11383812065063
H        17.03150192835506    1.83263587449285   11.09426959401990
C        17.40759303932055    0.97367265622328    9.13981830364531
H        18.43757457849869    0.72737544464348    9.34128033913729
C        16.82127605139930    0.66591794902148    7.92178569080631
H        17.38106940035615    0.16196819411422    7.14836246653746
C        15.49830289564564    1.01553707928845    7.71375711479832
H        15.01709669326220    0.78293697201635    6.77778656454980
C        14.79211797334417    1.64982499215796    8.73530210157224
C        13.39934839769868    2.10299038925696    8.60752848596472
C        12.67754059733722    2.11377096521880    7.41580654786791
H        13.10651550116716    1.73989113947716    6.50028053375249
C        11.38861344385451    2.62388624640905    7.42352575385575
H        10.80387999758659    2.63317625616834    6.51570008849568
C        10.87211121083437    3.12924474087234    8.60429770799581
H         9.87863083368964    3.54489734770019    8.64630179330460
C        11.65737424635786    3.07657207411917    9.74886266994903
H        11.31268708410729    3.45901688471187   10.70030156924168
H        13.31616299071715    3.69343256999605   15.31341164081538
H         8.72269508807983   -0.66508454440753   10.93058958351669

