71
CSD_code = JOCKAO | q = 0 | S = 0 | Stoichiometry = C22H37BCuN9O | MND = 4
Cu        4.08803248803265    1.15681057737605    4.76658407717762
B         3.41708288190741    2.30390591756159    1.96766065838703
H         3.16146607067696    2.74047463911629    0.90189691425521
N         5.43592894391537    1.72058574646691    3.34908064493247
N         4.93199271711717    2.19734952639813    2.19076968504464
N         7.11285712432539    2.25266714747974    2.01784325995107
N         3.01498559013437    0.21877872039129    3.31407019760516
N         2.83328629646954    0.89827982574138    2.16164289132176
N         1.83009175188396   -1.03354722922272    1.93730119830542
N         3.04997529959978    2.86682971360892    4.39061276569509
N         2.85898644200686    3.18580066459410    3.09271200629498
N         1.90197867430271    4.74817985175471    4.28937932812487
O         4.71065712304350    0.07679558609275    7.39460254956792
C         4.46516946045038    0.50373732607951    6.36220324967291
C         6.75274976267489    1.76592529469649    3.21581678158817
C         5.96953055997589    2.51139279371494    1.40430265245191
C         7.74574444430402    1.33616327753149    4.25265704203644
C         7.53219065624593   -0.14858995023189    4.56835353021531
H         6.52064159661213   -0.31960963335163    4.93051374874563
H         8.23795008950808   -0.47364253892714    5.32941169057474
H         7.68366033208572   -0.75009154403248    3.67461975385191
C         7.54896778452073    2.17984848407075    5.51723215631254
H         7.71047759266404    3.23292875148476    5.29743500686683
H         8.25588398697662    1.87268856357922    6.28457231234183
H         6.53830005528801    2.06003312503883    5.90183835091159
C         9.16016235067626    1.54752233915106    3.70976987712129
H         9.31823922332355    2.59425462806033    3.46668973514575
H         9.30697840703209    0.96720147479058    2.80347324849290
H         9.89351859786412    1.24007121059852    4.45169361145224
C         5.86656772446676    3.07116125905020    0.03679085523085
H         5.32242794815668    2.38897798765652   -0.61342092687147
H         6.86930558169318    3.22022641844605   -0.35193049966307
H         5.33864813439365    4.02260754995526    0.05431018981019
C         2.46286975347769    3.82714356698955    5.08857324404105
C         2.16114799602970    4.32849313175926    3.06168551983302
C         2.41409451713268    3.90796269051011    6.58416853538123
C         1.69076384166565    2.67205587271686    7.13090569028626
H         0.66958590617795    2.63667132569885    6.75751913261210
H         1.66215267827243    2.70652483118576    8.21766075272840
H         2.20189567699116    1.76289583501494    6.82100990409943
C         3.84477364792045    3.96958791654474    7.13103831037007
H         3.82731145450801    4.01716821567915    8.21750191212250
H         4.35570743531915    4.85237021045135    6.75281446659427
H         4.40762350319161    3.08978698707182    6.82646880056344
C         1.65421215936308    5.17098316639258    6.99331368700645
H         0.64347973742757    5.14859171111379    6.59625915504749
H         2.14958550900615    6.05343977549961    6.59881224676231
H         1.60900894207279    5.24342848555808    8.07749538387523
C         1.73176432267095    5.03441051990039    1.83229614097928
H         1.18351513513339    5.92641398662929    2.11968897145041
H         1.09181645240784    4.39296358665305    1.22966120636977
H         2.59599557345544    5.31621976560799    1.23407780620497
C         2.39965502787946   -0.94241174812565    3.14927768080747
C         2.11290815299365    0.11638057230676    1.34720705507737
C         2.32895466327737   -2.04034322211697    4.16672976858024
C         1.62724974780814   -1.51543614459624    5.42446075424048
H         2.16427261476110   -0.66156507907941    5.83256525157679
H         1.58208166204638   -2.29636003768339    6.18003584770932
H         0.61288596067594   -1.20209438173417    5.18745435658917
C         1.53405017764304   -3.21117802526062    3.58573792099320
H         1.47203360070919   -4.01675482759549    4.31370785461486
H         2.01390627673378   -3.58259505887704    2.68492812108551
H         0.52967489448475   -2.89184695789048    3.32295914809380
C         3.75034858120134   -2.50286874557651    4.50673262921477
H         4.33748739956410   -1.67477788483037    4.89808649295742
H         4.24580170453782   -2.88520335594659    3.61683722288812
H         3.71702380735650   -3.29388773408030    5.25249487896344
C         1.68499826738877    0.47545306537213   -0.02467612770121
H         1.11231028801462   -0.35057040786333   -0.43521243328704
H         2.55114410450689    0.66559479338399   -0.65553511065031
H         1.06907313387446    1.37233609450100   -0.00833072102754

