56
CSD_code = JOCKIV | q = 0 | S = 0 | Stoichiometry = C25H13F12FeO4P | MND = 8
Fe        1.69373847591656    2.42314146003214   14.52403098297065
C         1.87691273297779    3.84696758014750   12.83495398949689
C         2.10372802395060    4.52207810664865   14.04940559410548
C         0.91074865346570    4.44251932115906   14.81784670372261
C        -0.07553554394398    3.79052481659012   14.02739972365853
C         0.51524496318543    3.41950511499109   12.81606390209738
C         2.86118091368531    2.43208131441911   15.82157915789621
O         3.52886528668613    2.47631588367042   16.74116116140398
C         0.95607710948690    1.23777703219372   15.56550367749243
O         0.57344737370698    0.44383422940473   16.29184256631540
P         2.57228747822829    0.70923307228122   13.43432781143758
O         1.08746306667738    0.68647063195122   12.33876867041761
C         0.35237853154022   -0.46818922724978   12.30558998792881
C        -1.08658131987944   -0.10156027631553   12.73442586964861
F        -1.06285112862205    0.55291399542072   13.90323876684229
F        -1.67540991034509    0.71812487140497   11.85851394316635
F        -1.90011783579244   -1.14730269250597   12.89445510134678
C         0.32009342742837   -1.02593843086923   10.86094488803352
F         0.07115351915992   -0.07617540774120    9.95618000324335
F        -0.60199166475096   -1.97934962228176   10.68982208255327
F         1.49917006531428   -1.56667126099310   10.53438778394848
C         0.98133939078873   -1.48609968077669   13.22852101152437
C         0.49935903117914   -2.76195136840153   13.45819196807166
C         1.18913789280085   -3.58268739619757   14.33681718320619
C         2.33304087980249   -3.12606058358233   14.97054148626376
C         2.81387800155314   -1.85077928907090   14.72812868383454
C         2.14638171867467   -1.02484508427567   13.83469857924979
C         3.70292794575755    0.81973885043562   12.00023382240188
C         3.34218310530106    0.94032235464138   10.66563601714443
C         4.32665964002554    0.99341850793791    9.69400688761534
C         5.66675093001619    0.93901669595717   10.04125950541968
C         6.04237180924333    0.86443246896321   11.37349088154022
C         5.05168217617416    0.81679070827668   12.33761338425389
C         5.28446806564791    0.81195289562049   13.83057766410033
C         6.25599305980693   -0.31136878809372   14.25357813373241
F         5.92012350599027   -1.46861908191321   13.67175831775570
F         7.52648103508245   -0.06506420063760   13.91042718441231
F         6.24168252683243   -0.52179929520223   15.56863086086051
C         5.85158258651447    2.19094629037207   14.24202208893947
F         6.95486035659723    2.54570091503629   13.57537563101207
F         6.13700773884376    2.27721656412018   15.53749552868551
F         4.93037780209369    3.13422970274903   13.97686164393751
O         4.08846518909584    0.64365971857201   14.47742620350871
H         2.55600946721258    3.80454732763148   11.99974255820871
H         2.99451046447221    5.06549816619505   14.31488824066756
H         0.72861505303394    4.95516010912455   15.74886598434689
H        -1.10804733706802    3.65301979212771   14.29859589005774
H         0.01469376681274    2.97121574174710   11.97619509964101
H        -0.39682455422951   -3.11368324759559   12.97140348197233
H         0.82346493363879   -4.57926078313404   14.52929129496680
H         2.85650937956114   -3.76676929624548   15.66339916818071
H         3.69245547122060   -1.49367856784560   15.23796709700923
H         2.30378307517004    1.00589118965391   10.39000741249961
H         4.04269327044777    1.07833373266344    8.65619854057427
H         6.42692291131516    0.97078521499545    9.27641517432631
H         7.08565749252885    0.85228920379267   11.64739502234787

