90
CSD_code = JOCPUO | q = 0 | S = 0 | Stoichiometry = C43H42NP3Ru | MND = 7
Ru        6.79994827944031    3.92590114081462    1.41569759810456
N         6.79989565832624    3.92586243235598    4.83951267092528
C         5.42289106159963    3.64566499790963    4.50182346554981
H         4.77278524740061    4.17793785976720    5.21013152296780
H         5.27265000796648    2.56677227889094    4.61732014960087
P         4.97259897374451    4.10455477386538    2.74136524743096
C         4.19104058076662    5.74072868364699    3.01629540969463
C         4.63744016240822    6.84382529178185    2.30321112176815
H         5.44630624272987    6.71483245343747    1.59613800560208
C         4.05518298783402    8.08499927149313    2.49208399452549
H         4.41520402069700    8.93745344804282    1.93416785086538
C         3.01633628154584    8.22914652468358    3.39482440642294
H         2.55958470677183    9.19631978200720    3.54700914524621
C         2.55231452898355    7.12715586098287    4.09797266615226
H         1.73189533689956    7.23700440543480    4.79293406221907
C         3.13036777496994    5.88691293249448    3.90795502176941
H         2.75128522636315    5.02498760014113    4.44180446744360
C         3.39872052362997    3.20537191723555    2.48636328541177
C         2.83982711767865    2.23660766768018    3.31021234506317
H         3.32398653401506    1.94142396760819    4.22920094488416
C         1.64554555568774    1.63178799453850    2.95539413652376
H         1.21764584120649    0.87947890243246    3.60287024449602
C         1.00063031767789    1.98145350162207    1.78199082264289
H         0.07144821373376    1.50179576162985    1.51081614476346
C         1.54972934852368    2.95038985247564    0.95654354067423
H         1.04847890264898    3.23011069506381    0.04094308932738
C         2.73910293764515    3.55512679373368    1.30941142827478
H         3.17923615848232    4.31729938304051    0.67761586043809
C         6.79992827737222    3.92587209068327   -0.64102747828374
C         6.02042851478370    2.77577133761016   -0.31558554563877
H         6.45321633874569    1.80121930477430   -0.54723419560392
H         4.95229645785691    2.81747761856855   -0.53637207282802
C         7.73105908027812    2.87344189220345    4.50181396586987
H         7.59516483501264    2.04429208583093    5.21011973853784
H         8.74052966994975    3.28277263353299    4.61731109360363
P         7.55880059362148    2.25403275199910    2.74135890410586
C         6.53257049604345    0.75912789753634    3.01629256557509
C         5.35403507108750    0.59422592498775    2.30323694999170
H         5.06132752257597    1.35923562559896    1.59617303751747
C         4.57023494454231   -0.53058143589195    2.49212054365834
H         3.65195530566716   -0.64497700401172    1.93423194074258
C         4.96480862225105   -1.50234810691701    3.39484053702449
H         4.35555496567582   -2.38146862309606    3.54703690241287
C         6.15119848066058   -1.35326361046842    4.09795438117304
H         6.46626373620053   -2.11871158406299    4.79289945970494
C         6.93629300617967   -0.23256065337460    3.90792949963464
H         7.87230283943673   -0.12993539383123    4.44175283881652
C         9.12443433656840    1.34058186394454    2.48634830582668
C        10.24288906467920    1.34100503196457    3.31015210453213
H        10.25647439483483    1.90793486891710    4.22911308155329
C        11.36382055076188    0.60914792153912    2.95531669890355
H        12.22931578162558    0.61477670857240    3.60275740784314
C        11.38342573241145   -0.12424671008120    1.78194284861366
H        12.26341594625143   -0.68910021147997    1.51075218674226
C        10.26972017744731   -0.13323403501721    0.95653916778464
H        10.27807549270441   -0.70722344287926    0.04095940299585
C         9.15131519385469    0.59441666013213    1.30942275862915
H         8.27116586133925    0.59445946378348    0.67765782327881
C         7.24572741846258    5.25849162221594    4.50184943721084
H         8.03177031315462    5.55535001585727    5.21012926712075
H         6.38649833406046    5.92804698734510    4.61737253883938
P         7.86828860785459    5.41903544855939    2.74140200454330
C         9.67604115296987    5.27783029148369    3.01628384008048
C        10.40813528396639    4.33961559519258    2.30328178614032
H         9.89198041802100    3.70356253181742    1.59626143399650
C        11.77414692042002    4.22326684489264    2.49217654143783
H        12.33237201233767    3.48519974257152    1.93431873216512
C        12.41841310468889    5.05093301491627    3.39484679263667
H        13.48438474747161    4.96291028013036    3.54703439608480
C        11.69608166421900    6.00384811898534    4.09791923028932
H        12.20142487235578    6.65948222534217    4.79282739745841
C        10.33297718467916    6.12336359965344    3.90788628188210
H         9.77606498002481    6.88265742158953    4.44168122608755
C         7.87644405038266    7.23164233274791    2.48637497628932
C         7.31678814604069    8.20001503217526    3.31016627187793
H         6.81901316967758    7.92829048146998    4.22911665909731
C         7.39008871583786    9.53670456644651    2.95534191750913
H         6.95241376746303   10.28340859188247    3.60277386825285
C         8.01544077951149    9.92041161897265    1.78198568162490
H         8.06459278419466   10.96493613775465    1.51080314622533
C         8.58014340396156    8.96043548963311    0.95659488279980
H         9.07308187482542    9.25469160658405    0.04103662935386
C         8.50922116550385    7.62803717265077    1.30946868541151
H         8.94932540790540    6.86580463208296    0.67772487678609
C         8.18569797897493    3.82585868206849   -0.31558877358106
H         8.81330256349268    4.68794581836589   -0.54717519842431
H         8.68365728487174    2.87996240793664   -0.53630892774032
C         6.19365108503550    5.17598904801788   -0.31559717198307
H         5.13327855329528    5.28846556214991   -0.54726845244925
H         6.76385243454171    6.08016003263010   -0.53634347852822

