35
CSD_code = JOCPAU | q = 0 | S = 0 | Stoichiometry = C16H10BrN4O3Re | MND = 6
Re        0.94993211801473    4.47095947315751    3.22557564557425
Br       -1.05944275626426    4.70219010188663    4.84920327041090
C         0.61302289490900    2.53992326395875    3.25981140717795
O         0.37852762237895    1.42928954932549    3.38715176388618
C        -0.15705792595266    4.65024620061584    1.63182059824287
O        -0.82789939561232    4.72883956810136    0.70405414560593
C         2.57098668627568    4.32688405613187    2.17018907064749
O         3.54728814105500    4.25319285697339    1.56910689873541
N         0.96438649646948    7.74538198394387    3.27481393583277
C         1.27731746189053    6.51671561306300    3.70622108212175
N         1.97578458565634    6.72199612371586    4.86574640035676
C         2.09916769356725    8.06681308229356    5.13467856176662
H         2.60819374027564    8.42073861479710    6.00576534378906
C         1.46849396336156    8.70471890629977    4.12815757905761
H         1.31437608483298    9.74931628158608    3.95132276921880
N         2.12464450052509    4.44370154923028    5.13130398965809
C         2.39672579171081    5.66126756262216    5.63354061669753
N         3.00684368530948    5.91520268522194    6.77441191384062
C         3.36202420903999    4.87779755520748    7.51192906899038
H         3.85608518874029    5.11119575949236    8.44416532612216
C         3.10834330618144    3.57394414200831    7.10665972014869
H         3.38459744104916    2.72669374669503    7.71000966683777
C         2.48241174439055    3.40560896858029    5.88342258448968
H         2.25746907658662    2.42143219774267    5.49299736281928
C         0.18239763453126    8.04230729705785    2.13129434446626
C        -1.09625800820548    7.51445098046838    2.02085424542947
H        -1.49286011108770    6.88823591885610    2.80562513957552
C        -1.85784441544903    7.81335451141150    0.90520866017471
H        -2.85004237411433    7.40031043539990    0.81328990981312
C        -1.34928318412182    8.63680710063778   -0.08469080371610
H        -1.94543074868180    8.86592349917243   -0.95471515068643
C        -0.07680537881174    9.17056581464738    0.03881975279127
H         0.31949643262659    9.81357562848706   -0.73233526603614
C         0.69480942250277    8.87774882654677    1.14847486563357
H         1.69249837642963    9.27987014469418    1.24861558051873

