52
CSD_code = JOCQEY | q = 0 | S = 0 | Stoichiometry = C18H30FeP2Si | MND = 8
Fe        4.89699621835838    4.44507606774428    2.26520362123828
P         5.71830027421281    2.70499262512427    3.18438103119509
P         6.68756801384906    5.44597878453503    2.85098687554907
Si        2.92877153580329    3.29698158315898   -0.08354068729656
C         2.93657819580318    4.36808640936279    1.46079490793638
C         2.94333300907406    3.91292829356347    2.79575670688079
H         2.58991428015714    2.94967282037265    3.12377759620521
C         3.37938138204371    4.96438555265641    3.64045993085054
H         3.37241737459258    4.96314475219247    4.71698042973102
C         3.64414812327481    6.08049781702348    2.81846318486591
H         3.90967284383222    7.06605765196708    3.16076411551306
C         3.39538079669256    5.71142441160630    1.48362620941148
H         3.43808942539551    6.36942793990155    0.63232245050439
C         2.19103826580887    4.26610772375893   -1.55322616863240
H         2.77573891515132    5.15336921512367   -1.77214480810776
H         1.16983620649960    4.57904669044438   -1.35752767432027
H         2.18384073473473    3.65115670015123   -2.44690825660140
C         1.91840637321771    1.70752195313443    0.20201646796789
H         2.31454651775269    1.13091025497284    1.03066154584761
H         1.95432248484766    1.08018658029998   -0.68139003735996
H         0.87591891123194    1.92478730658820    0.41051279751707
C         7.56866359482154    2.80356945615325    3.26307423627703
H         7.94644262745843    2.17549689841014    4.07561388509722
H         7.92937504317256    2.39586900352314    2.31770922756334
C         8.01548449113960    4.25508060060690    3.42737024761879
H         8.93723334555362    4.44588798801072    2.87268572813620
H         8.20879240598619    4.46987302577284    4.48183598932199
C         5.45194363517534    0.96348504145870    2.69939645183733
H         6.06814596446433    0.29178948008748    3.29666036880840
H         5.69201930518842    0.86160377346845    1.64387318925988
H         4.39958644855789    0.72414343799819    2.84301318120797
C         5.32055676556471    2.58701417157714    4.97778663403847
H         5.84648326953981    1.75325191826886    5.44201935354774
H         4.24855570882306    2.44715399703341    5.09336106131141
H         5.60416863325657    3.51682594057004    5.46626249266229
C         6.57633884337171    6.51629965104173    4.34860181570061
H         7.56834933127135    6.79886545299758    4.70060816393745
H         6.04527115479864    5.98348518560713    5.13409199252896
H         6.01711292108770    7.41532481905362    4.10167102247337
C         7.60014481766455    6.62179227059920    1.77351750108087
H         8.50280615433683    6.98968674920729    2.26116635977124
H         6.93236440698765    7.45714695078968    1.56534324199725
H         7.85205015603382    6.14148983434324    0.83303041435381
C         5.67777763456461    4.04169394720171    0.35631173531794
H         5.53452044816811    5.07175191409207    0.05000711626927
C         6.98868855423913    3.46908266131879    0.22669739651150
H         7.91307773591157    3.98419224659038    0.43166054651522
C         6.88129490958093    2.18961123214704   -0.23731334973256
H         7.69121047905180    1.49927908683205   -0.41211682079029
C         5.50924235924903    1.91280418327797   -0.47234897119033
H         5.12222823784484    0.97718932539497   -0.84076840256133
C         4.76827073479956    3.02361862288462   -0.16419204776643

