84
CSD_code = JOCQEZ | q = 0 | S = 0 | Stoichiometry = C41H36NO2P3Ru | MND = 5
Ru        2.64956065514442    5.11949238686698    6.44344256614793
N         4.03927082904602    7.02303575123487    9.03581899886403
C         3.57342106449279    5.82439158751214    9.69387764983855
H         2.62177944015729    6.06495934892609   10.18105396273179
H         4.30549333247104    5.54102547325289   10.46258502664345
P         3.26907869461739    4.40582446289519    8.51465743419943
C         2.99207186056053    7.88222522177608    8.52417216542079
H         3.46888436349584    8.64073600205154    7.89101106202252
H         2.51101629566048    8.37483850526648    9.38080899488819
P         1.72177954331420    6.99332927987074    7.46534054761938
C         5.15401785449230    6.79957686604474    8.14675334402924
H         5.78711718152145    6.03154682449537    8.60775044533687
H         5.72690698915730    7.73332394178909    8.06068145934610
P         4.67021381926233    6.20261923573667    6.43866266460848
C         4.83129862768741    3.45543626830428    8.63971692208169
C         5.37824551640998    2.95437828932836    7.46523356979601
H         4.85698773860101    3.14036266935741    6.52941554338101
C         6.55414824771899    2.22693551571664    7.49310779156273
H         6.97570815011947    1.84994870010560    6.57293834866245
C         7.18687963444283    1.99026026326863    8.70117095643810
H         8.11112170031321    1.43197201736619    8.72872134654566
C         6.62499017175056    2.45351076163810    9.88145371357611
H         7.10640326631365    2.24529505896225   10.82633136341447
C         5.44648754050239    3.17518271970129    9.85666935826656
H         4.99876188059280    3.50845087723931   10.78398841537618
C         2.23223738716890    3.27343627905994    9.49787424694594
C         2.15992488283522    1.97782255297191    8.98567699313481
H         2.73158456799104    1.73164735131944    8.09872563561140
C         1.36829237473317    1.02425440616879    9.59296209593415
H         1.31716087612563    0.02582832675101    9.18457220483882
C         0.63624309467707    1.35367791216229   10.72311309516941
H         0.01220562461428    0.61199376026112   11.19959340692905
C         0.70513432197538    2.63599799792688   11.23839189666354
H         0.13557058628257    2.89695072605823   12.11892655133673
C         1.49662032381565    3.59649464026759   10.63129772003522
H         1.52213500794790    4.59148737466118   11.05063431156735
C         0.34877925777951    6.76278573386367    8.65598944597007
C        -0.23986370848752    5.50851512961998    8.74983592357082
H         0.13402789224515    4.70393478850255    8.12405834461572
C        -1.28736739264559    5.29000648773451    9.62663896523930
H        -1.73321993226308    4.30864084229644    9.69636332285191
C        -1.75652250354905    6.32914017618848   10.41159123063963
H        -2.57127890212136    6.16287289890015   11.10106046268369
C        -1.18925630017945    7.59017049614478   10.30430796540629
H        -1.56749310193502    8.40508559825162   10.90496326695171
C        -0.14587059794947    7.81208185569271    9.42588900030456
H         0.27574810886306    8.80369881763458    9.32928143263017
C         0.97198534520487    8.37013441762188    6.53104218815747
C         1.16375014176638    9.72664116364827    6.76001528443359
H         1.81848073009275   10.07155478567614    7.54711227804822
C         0.51653734362953   10.65635601063571    5.96365949477315
H         0.67499092816610   11.71084802100325    6.13987193306825
C        -0.32796067716518   10.24486488850092    4.94714659041054
H        -0.82641915399008   10.97776126826779    4.32972682335847
C        -0.52995866049287    8.89208096282081    4.72037290234881
H        -1.18675399033600    8.56669100066205    3.92701014254576
C         0.12009630804756    7.96226030810984    5.50661304304402
H        -0.00582973378394    6.89818576600539    5.33023583523996
C         4.83068257500071    7.76785907353040    5.49925205787360
C         3.74548911034137    8.25578186320146    4.78379370665058
H         2.82439507675692    7.68598434292944    4.76040818650470
C         3.83553704381404    9.45739418806838    4.10370683697189
H         2.98031470302457    9.82864849256952    3.55812354129546
C         5.01793711847390   10.17619704616412    4.12704310523850
H         5.09177920356700   11.11621099407193    3.60017973783484
C         6.11415717047766    9.68298453195168    4.81870819396052
H         7.04256252649717   10.23604910425582    4.82432327815373
C         6.02587441979459    8.48408141501575    5.49957458158008
H         6.88923105969181    8.09504385552998    6.02313385408100
C         6.22921779458618    5.44032184491196    5.84486281123829
C         6.11274317727429    4.81465729351296    4.60556262915894
H         5.14424575901023    4.81313160959836    4.11553979717611
C         7.19874237178964    4.19410545316836    4.02248085903543
H         7.09682602702399    3.71458611497411    3.05991365824251
C         8.41822305822726    4.18116426839358    4.68216841318483
H         9.26999733255027    3.68790002337317    4.23720272213777
C         8.54208637196209    4.79927954061554    5.91390471197378
H         9.49177674633660    4.78993786459219    6.42970191780409
C         7.45669205644692    5.43282710922859    6.49555246412914
H         7.58266974160092    5.91132910398460    7.45606319046283
C         2.46520898835286    5.21474167385579    4.60256318226849
O         2.32851390251689    5.19805381829028    3.45224462945600
C         1.59890279087867    3.60691739438537    6.21595908156833
O         0.95113902709505    2.66005120573756    6.04481516675767

