67
CSD_code = JOCWOP | q = 0 | S = 0 | Stoichiometry = C22H32N4NiO2S6 | MND = 4
Ni        8.19782428273211    4.56556323546943   12.25585686451662
S         9.80444991507933   -0.09137701459873   10.89649493585138
S        10.75229042509083    0.39419816917592   13.67144746780479
S        11.80490514039699   -2.60904659084881   10.66017182596413
S        12.75101255811164   -2.12493079817425   13.41932435653544
S        13.60497065616921   -5.04627826602741   10.33441195184192
S        14.63323621938205   -4.52030668973143   13.32947896370398
O         7.87358477019044    1.18964685042215    9.88102042783730
O         9.73832234781903    2.11094269439747   15.17644751763168
N         7.64049747562715    3.07165700474729   11.17972319074963
N         7.73210490107272    5.57044390851840   10.79663295471271
N         8.60106802856281    3.57828228985755   13.84616960691188
N         8.55584674955002    5.99887071922246   13.36242195533816
C         9.20237499380400    1.31370487992387   11.72818805705282
C         9.62812989856802    1.53508159962409   12.98082782930180
C        10.86950898048679   -0.56226921928086   12.20660038621727
C        11.70145126697844   -1.63284047446054   12.10867922634630
C        12.97981030586399   -3.73846070581743   11.31427557994501
C        13.41318275327087   -3.51669613091901   12.57743533906852
C        12.31210983194050   -5.17362752041376    9.06321773788634
H        11.35223810638662   -5.35725506286525    9.53518334821000
H        12.59129627560823   -6.01524340453703    8.43772859397148
H        12.28635001630098   -4.26120939759788    8.47485023371154
C        14.38166533230390   -4.11430442979502   15.08312680800594
H        14.61509561028779   -3.06746673415603   15.25335404162808
H        15.06844162169266   -4.74633894508750   15.63663877014995
H        13.35703102992470   -4.33347427790016   15.36582903988742
C         8.16188370259972    1.90327347760279   10.85482377046123
C         6.56453524393399    3.53745220262301   10.30629073382817
H         5.65413552356393    3.65467287894585   10.90576241384784
H         6.38771866138012    2.80361057302536    9.51308795463630
C         7.01252096444821    4.88509791455437    9.75550061526661
H         7.66852515466308    4.72521100626565    8.88274248216636
H         6.15994067924196    5.49434955169805    9.41968327194189
C         8.24587407150407    6.84583746703387   10.37716153032767
H         8.31879402463178    6.89293770455649    9.28123553638504
H         9.24658139332913    7.00532926020892   10.78976000518880
C         7.33455691258644    7.97968579258364   10.88049358820945
H         6.33371198944490    7.83747076189841   10.46884367301488
H         7.26548848448644    7.89820966731415   11.96669652743137
C         7.86224463634200    9.35379620198282   10.48014420081658
H         8.88122629242162    9.47899560349238   10.85378772303732
H         7.90222428728287    9.42485482891832    9.39060267354235
C         6.98347132544963   10.47064266344888   11.02994923755625
H         5.96727187323478   10.37664670093725   10.65422721577283
H         7.37020559879223   11.44278553197582   10.73340572306858
H         6.95118961254432   10.42938003068574   12.11629128990267
C         9.28929899260583    2.46959426228011   14.07424042108052
C         8.35231014605987    4.33909663414205   15.07442803685163
H         9.27715987585581    4.38388090661053   15.66346550590151
H         7.59895552260894    3.82728151595794   15.68409736935181
C         7.90665904902624    5.73843788970269   14.62684037198924
H         6.82259843989512    5.75513172066537   14.47280785109043
H         8.17366407528068    6.49570405335417   15.37317937584495
C         9.93510156435929    6.39463482615836   13.49470681673725
H        10.47328749057229    6.11650319397817   12.58079898181501
H        10.42731234280468    5.90254599131971   14.34668892745638
C        10.04451853008876    7.92110136782873   13.68851991077250
H         9.55641316562635    8.18561763676643   14.62842391459560
H         9.50564334544602    8.41964123615847   12.88319587450581
C        11.49193415383216    8.40832041848942   13.72004845215279
H        12.05945514188891    7.81727051526868   14.44225431526468
H        11.49807800602597    9.44494840738949   14.06521378604832
C        12.17704134131049    8.34326595140824   12.35976541744033
H        12.26590561377973    7.31762372932449   12.01067194848341
H        13.17805559614509    8.76336743002842   12.42270713017753
H        11.61480768170167    8.91172680421438   11.62161841526941

