37
CSD_code = JOCXEE | q = -1 | S = 0 | Stoichiometry = C10H16CoN2O7S(1-) | MND = 5
Co        6.51397390986336   12.15228837333707    5.79106749434134
N         7.13574197260154   14.01345439003496    5.52813883181860
N         5.93601949322173   12.63841906988292    7.62056470845680
C         8.33914591568684   14.09070920470703    6.38236241853964
C         8.42461819560910   12.95904765066856    7.41668010421652
C         7.21288055005220   12.80125973729837    8.34645807479297
C         5.07809771952704   13.82242408033301    7.74719442581709
C         5.72831972725446   15.12462448317995    7.29348140510287
C         6.17522272933011   15.07940184944161    5.83657989275370
C         7.50358254805297   14.10595367798773    4.10793614253424
C         8.01387624694394   12.71484097533408    3.63790522090926
C         5.20233936956410   11.46768087280264    8.12235404872782
C         5.81703122895404   10.19060980978646    7.48409528403095
O         7.44211585098971   11.74992735204998    4.22932423254594
O         8.87578085620428   12.64474240789426    2.77684978239604
O         6.25426287656259   10.38375178524586    6.31003383194979
O         5.83407646069492    9.14579685217882    8.11391995258372
O         4.61122747743828   10.88210084826210    3.86131228046742
O         4.74973788730960   13.32717214570808    3.95194290955714
O         3.70797468310698   12.13000676851174    5.76694390499542
S         4.67843483037265   12.05764000115591    4.67485978992554
H         8.38842733735293   15.06776664396631    6.87871357966508
H         9.22427540624131   14.00173544342732    5.74527854429015
H         8.56520213386821   12.01368347165346    6.87685691923625
H         9.31380924785669   13.12274619347946    8.03400082777938
H         7.14851266564664   13.64920536000589    9.03942653155938
H         7.39031290479058   11.90221305195473    8.94437382026610
H         4.20296473954435   13.62812491422103    7.12165122174388
H         4.75726945404790   13.92987414685762    8.79611057327432
H         6.56114709343176   15.39343352031702    7.94849692677224
H         4.98338526327343   15.91857657649366    7.38800231585626
H         6.61325621204277   16.05420594317619    5.56694241323240
H         5.30285487703903   14.89025774042123    5.20561702381071
H         6.59889666351614   14.28517587341860    3.52459113917493
H         8.23187238715417   14.90490739445021    3.91919121465289
H         5.18995849482529   11.42440342754176    9.21882692108634
H         4.18029459002863   11.50803796281439    7.74211529113691

