35
CSD_code = JODCEM | q = 0 | S = 0 | Stoichiometry = C16H10ClN4O3Re | MND = 6
Re        2.43727688114194    0.56070023828330    8.90991544377815
Cl        4.13056240281241    1.14454002852345    7.30347977005954
C         2.91579992323790   -1.30159369901054    8.54275510838222
O         3.25649567793961   -2.33514949822709    8.19885678942257
C         3.62325520821915    0.55649518618178   10.45223555559399
O         4.34253401533543    0.51641429122266   11.34625902408056
C         0.89927494858274    0.16287415058916   10.02566737678065
O        -0.03949119686016   -0.05742670869213   10.65398805579226
N         2.42221662739483    3.81870451006365    9.21122300355056
C         2.07125508400626    2.64029007074077    8.68237019167539
N         1.38174445858621    2.96249070596296    7.54574260671304
C         1.30404162137977    4.32760899214559    7.38453597045037
H         0.80953649821298    4.76620529900468    6.54391842179673
C         1.95352391831274    4.86141825717215    8.43808307813071
H         2.14324593174225    5.88248201976828    8.69868949639075
C         3.23141891526386    4.00239917872905   10.35855946521871
C         4.49285097921824    3.42555649621112   10.39877680435727
H         4.84050729601255    2.84154844843510    9.55957345538256
C         5.29021018699515    3.61793791104799   11.51269909278190
H         6.26851675759675    3.16525571380812   11.55174625875235
C         4.83469161717092    4.38759537185040   12.56971413269619
H         5.45885042391317    4.53489989703042   13.43787725808978
C         3.57988582978319    4.97218867675726   12.51615938061831
H         3.22580961260240    5.57343499933208   13.33982861118483
C         2.77228289341565    4.78443456965544   11.40911163450227
H         1.78797923552688    5.22716418775116   11.36293316510348
N         1.18915615330579    0.72394377249392    7.06287403160980
C         0.95100204064155    1.98725679584223    6.67744952931481
N         0.35997169455841    2.36240470702633    5.55872720482888
C        -0.00899220298968    1.40688751785166    4.72339624479188
H        -0.48126048500754    1.73912724036512    3.80969476488527
C         0.20317702169217    0.06544648538899    5.00928850551838
H        -0.08880456212957   -0.71454579333055    4.32748204455366
C         0.81154618345711   -0.23018934589207    6.21869938264017
H         1.00282840892694   -1.25110067408202    6.52268914057316

