74
CSD_code = JODHES | q = 0 | S = 0 | Stoichiometry = C28H38FeN3O3P | MND = 4
Fe        4.26426809580864    2.31179436616848    7.13110114006713
C         4.99045162744332    0.84605253943322    7.86740958630987
O         5.45843378300216   -0.12103236782540    8.28773075806234
C         2.89606250106275    1.52197063582184    6.28666271882377
O         2.04676205116394    0.98451282407995    5.72355803749279
N         5.10264657262027    3.10001862166065    6.00465510644501
O         5.70161173430912    3.64435872643075    5.14441807358341
P         3.66049923303620    3.43706345308544    8.75598614363914
N         3.14170797352834    4.99861635667551    8.98064031206163
N         3.51320962508823    3.12959835565505   10.37990938746393
C         2.86799815870373    5.41948071391488   10.34482937047383
H         1.90612033875504    5.94038952720351   10.38626744333807
H         3.64256495688340    6.11415198870145   10.69131925095554
C         2.85133645498415    4.13949071742285   11.18653774358529
H         3.38239011228004    4.26992192237682   12.13450154316771
H         1.82352900867875    3.83005981287056   11.41501552565639
C         3.24821011545694    5.98583600272970    7.96117297389948
C         3.89527568929421    1.88533377779494   10.95126566098370
C         4.45914250084083    6.66187484312806    7.77624165362285
C         2.13391059875169    6.25524878996086    7.16304704143888
C         3.00241600661358    0.81092399801828   10.95289411113528
C         5.18501358255381    1.76524542435619   11.47862340772847
C         2.23991953836313    7.23906757450613    6.18924306072582
H         1.39388016142627    7.45909694906625    5.55673763620076
C         3.41894464329130    7.93699484804846    6.01546489103495
H         3.48536691954800    8.70351134087388    5.25773725271608
C         4.51875278718911    7.64617385475198    6.79883879033147
H         5.43901143025850    8.18710817642572    6.64180882636578
C         3.41786360768515   -0.38781511388003   11.51768827779506
H         2.74477527570750   -1.23085605355395   11.53644362343340
C         4.68808735563234   -0.52177956374446   12.04224565361280
H         4.99926797956967   -1.46540347087816   12.46499771464100
C         5.56645466044340    0.54423517366458   12.01626159402960
H         6.56254059339729    0.42060286711273   12.41167248573115
C         5.68204527067461    6.34757563837908    8.60589964314401
H         5.47495469919626    5.46925898298023    9.23077963492233
C         0.85295759386957    5.47134008177667    7.31826863805012
H         0.95348380768075    4.79472039804837    8.17419967530747
C         1.61911556583654    0.93211614713083   10.36020658997333
H         1.53218809741380    1.90287846712369    9.85546188774224
C         6.16088989450888    2.91808127637047   11.42915299708863
H         5.62170751454120    3.82855629624982   11.14755852771990
C         6.87686824051051    5.98976514319903    7.72109620349456
H         7.71550469504199    5.67552300967929    8.33881606475929
H         6.62062847192675    5.17363621264549    7.05069965115774
H         7.19429092224635    6.83843163367985    7.12120541484481
C         6.02785768555706    7.52640625921948    9.52033580705536
H         6.85852457862508    7.26528644281009   10.17275449584306
H         6.31564137091772    8.39330357107371    8.93051241040552
H         5.17636761020041    7.80809446894394   10.13792997927807
C        -0.34104519454420    6.39178698237924    7.57715856878905
H        -1.23224404197627    5.79979124832811    7.77381328749552
H        -0.15338199145575    7.03191322000537    8.43745335267422
H        -0.53905937014312    7.02613964586903    6.71731858901044
C         0.62747735157764    4.60883590392587    6.07477739684560
H        -0.25877420257869    3.99044795217355    6.19880199504698
H         0.49695945848089    5.22750845893501    5.19043458252666
H         1.48658352123345    3.95698515275846    5.91649429637265
C         0.55944613027968    0.85981400422174   11.46299997794375
H        -0.43264852242928    1.00695468075142   11.04179406695895
H         0.58389726376106   -0.11103633198877   11.95189959753133
H         0.73359153386664    1.62378238234063   12.21897390727334
C         1.37843489344180   -0.14540900218893    9.30244360604995
H         0.42320849386139    0.02226174426909    8.80993736417320
H         2.16503711272939   -0.10944150549825    8.55029599449266
H         1.36538253643277   -1.13829533744670    9.74389015274472
C         6.81732261351569    3.16936144200059   12.78790420125720
H         7.40138047751183    4.08677399396853   12.75371408271660
H         6.06329999172100    3.26812423938857   13.56665401940584
H         7.48533606322076    2.35655127714864   13.05884582604371
C         7.21515877413534    2.65428500431693   10.35125327667551
H         7.92687573738050    3.47631526466454   10.31033975054525
H         7.75715337577380    1.73519980031347   10.55986802210774
H         6.73845630208177    2.55752813800153    9.37422966798293

