82
CSD_code = JODJOE | q = 0 | S = 0 | Stoichiometry = C33H43Cl2N3Zn | MND = 5
Zn        6.52754323965565    6.70496325043463    5.47487520898388
Cl        7.80879947967037    5.27238641243711    6.69345371064924
Cl        7.15397950497615    8.69277020369807    4.78050688098279
N         5.09759362377094    7.27079572930343    7.11768368847278
N         5.04960593531164    5.16945469736384    5.59479445989073
N         6.58186678599983    5.56037671993986    3.53799395718731
C         3.59636610732849    6.32567015341367    8.81631874366401
H         4.07201343371659    5.71152976537787    9.58023862297837
H         2.59843897619991    5.93306764589226    8.62928871908988
H         3.52277427704233    7.34557884937837    9.18817327636390
C         4.41425425999723    6.29513752827612    7.56361298346032
C         4.45908576426506    5.05337754753668    6.77427108909572
C         3.99019473904072    3.81832782763661    7.22060679468945
H         3.51742852064140    3.71565251783752    8.18336542189087
C         4.17738898614508    2.71183305455270    6.40793426300504
H         3.83355845431802    1.74007317215893    6.72978846406007
C         4.83270214140282    2.84903667687137    5.19475304068611
H         5.01834391761218    1.98865061234228    4.57326556704533
C         5.27167573645159    4.11840037152310    4.82051375757836
C         6.05665132303550    4.40438244202014    3.60830368242355
C         6.19293142434703    3.33865879836083    2.56687981724036
H         6.65157950648790    3.75063229573581    1.67037886531030
H         5.21867548264198    2.92125177442487    2.31895432047234
H         6.82688544393500    2.53691821643900    2.94405380689960
C         5.17051593863738    8.51937127839388    7.75197435364788
C         4.46130989753669    9.58284177506625    7.17981648921766
C         4.53028321989238   10.82729526658115    7.78547591392783
H         3.97149716860195   11.65221880504918    7.37243114231805
C         5.30858959495680   11.02794691578984    8.90955402814509
H         5.35606946968509   12.00446078290394    9.36815894459106
C         6.03826066808279    9.98045211133176    9.43557174310131
H         6.66481531480914   10.15002179147346   10.29747703900464
C         5.98151359693353    8.71079987123206    8.87756393677190
C         3.60258578721915    9.36008781224186    5.95688730712670
H         3.86631959566704    8.38739207604550    5.52622876180700
C         2.12316788138374    9.33131841208549    6.35161130996849
H         1.93084913252904    8.54134212520067    7.07591374472317
H         1.50223883997885    9.15451708815220    5.47592703764352
H         1.83013170017992   10.28007884658891    6.79572802465640
C         3.86795142272408   10.41854933032668    4.88809239184143
H         3.56461303544229   11.40799654462140    5.21926113622130
H         3.31080514154872   10.17845109003529    3.98536041437290
H         4.92793901820431   10.43382687883257    4.64953446218578
C         6.84600920491647    7.60391386919593    9.43367448042414
H         6.61309208614944    6.66576728517385    8.92260724116024
C         6.61745002750586    7.40010979025553   10.93301545180887
H         6.97135838867128    8.25523186614639   11.50305295946882
H         7.16049524289350    6.52065877766425   11.27157886233269
H         5.55990602035642    7.26010796141355   11.15112274505564
C         8.31505687646258    7.92118885633900    9.14364028766605
H         8.45946600322351    8.05652147442225    8.07382753883918
H         8.94477473040861    7.09711018470259    9.46999003891670
H         8.62793626404376    8.82991273911834    9.65284344777404
C         7.35685576559338    5.99496804216298    2.45247705502699
C         6.76486265526969    6.87864813035327    1.54191603026054
C         7.51975114532395    7.33167866474316    0.47167476044899
H         7.07250500918761    7.99497269379919   -0.25194977988280
C         8.83893444404432    6.94935569026519    0.32070790316325
H         9.41652699955416    7.31451038258146   -0.51544560901119
C         9.42157061982482    6.11123073007761    1.25055126999365
H        10.45929596771435    5.83689298240289    1.14091278433344
C         8.69795420798587    5.61331724191415    2.32523997823037
C         5.32132964374276    7.29477066855158    1.70321870072563
H         4.98201832665913    6.98067032787124    2.69679819286611
C         4.45055433960091    6.60090996606602    0.65191795839207
H         4.76527269967891    6.88382908009977   -0.35001522343246
H         3.40792360576641    6.88490296651183    0.77822063626310
H         4.52626158800317    5.51825970173890    0.74037229322946
C         5.17224284764050    8.81335758701203    1.62994461432139
H         5.81573404320566    9.27605897499824    2.37339738987835
H         4.14163819041525    9.09342534137807    1.83647752618502
H         5.43638429889488    9.19457301358682    0.64733381792777
C         9.38128072589358    4.75261290660020    3.36150733717354
H         8.64245188420974    4.39332144759501    4.08306263819767
C        10.06337988468874    3.53584654184684    2.73268857272771
H         9.36263795979561    2.96879266520945    2.12182839335050
H        10.44710738221507    2.88451489354920    3.51473866284620
H        10.89743564851785    3.83566017160314    2.10345287875202
C        10.38963406011140    5.60503771409521    4.13575038287449
H        11.18099988768878    5.96606209619934    3.48277534243578
H        10.83161381022505    5.02036755809594    4.93882961517561
H         9.88640402591875    6.46303394974683    4.57668550070073

