73
CSD_code = JODPEZ | q = 1 | S = 0 | Stoichiometry = C36H29ClN5RuS(1+) | MND = 6
Ru        0.03374056990498    0.43968249866302    4.51773626311558
Cl       -0.90086817084401    0.57693637979534    6.66096778109108
N         1.84562420009973    0.32020847661728    5.39394124331934
C         2.51786798003050   -0.76449965429346    5.76892746411799
H         2.07810565971242   -1.71874182948073    5.50194382995832
C         3.70805428767180   -0.71122016029583    6.47021797856042
H         4.20634938422608   -1.62243954277266    6.75760274660808
C         4.23355984415210    0.53061949909165    6.80199859858227
H         5.15543191003675    0.60999759445156    7.35584942924746
C         3.54476055792731    1.66485460315202    6.41602254799830
H         3.92047082307149    2.64309293523180    6.66703748673402
C         2.34711489705083    1.53991039119342    5.71503441267891
C         1.51897489762182    2.67455844906441    5.30310140659016
C         1.77027355913391    4.02173763079714    5.51932730244753
H         2.66908270635992    4.33871119531137    6.02139575765845
C         0.82565568946599    4.97605947343513    5.12305806481441
C        -0.37273846687749    4.52306010860216    4.55877922284251
H        -1.12918779364664    5.23404245927382    4.27171660642869
C        -0.56990914029549    3.16403190744179    4.36269974903163
N         0.38877243016474    2.28199716452840    4.69142507605744
C        -1.77289606555383    2.50838030309665    3.84737137270954
C        -2.92905698950551    3.18881432859182    3.47097750760786
H        -2.96188452519359    4.26437326243693    3.52752330737476
C        -4.03290380338753    2.47677600528981    3.04150762491254
H        -4.93897780132739    2.98773846785354    2.75719188812884
C        -3.95268696216462    1.09124203876612    2.99338212314273
H        -4.79157076699359    0.49495244280069    2.67413835624900
C        -2.77323868378677    0.47902365164376    3.37475504228851
H        -2.68129843877478   -0.60101114887837    3.35519793014369
N        -1.70511162090569    1.15415324296832    3.78983651859365
C         1.07537316745516    6.40358126464274    5.30666377249848
C         2.35546032496308    6.93093169703506    5.13618709725971
H         3.16995945610860    6.28099245789148    4.85073659353127
C         2.59989353397309    8.28117509404296    5.28029100386311
H         3.60029172460906    8.65070422001067    5.12417555722007
C         1.56226713353382    9.14446209086904    5.61785405933500
C         0.27946406638669    8.62343034579564    5.80586553521689
H        -0.51987948111825    9.29420536427010    6.08011036459256
C         0.03920101032698    7.27974079117501    5.64553828264374
H        -0.95433934357168    6.89584800275236    5.82065955562451
S         1.73647832670675   10.87645980683146    5.82910339668322
C         3.49514857652332   11.19339921666947    5.51361038671373
H         4.10567863644310   10.66553679345650    6.24009037516142
H         3.62225414817847   12.26442096273477    5.63734289708058
H         3.74900804670714   10.90935814382110    4.49661620685565
N         0.78489765193209    0.14523960394424    2.67762205768936
C         1.34716462525457    1.03288854177342    1.87046518806916
H         1.43002217867226    2.04916934548174    2.23591107763465
C         1.82416802782146    0.69408738149664    0.60793203813015
H         2.28799782626736    1.45303190855670   -0.00133194086704
C         1.70271173116222   -0.59835721502641    0.14661128205060
H         2.08666119762572   -0.85550165741146   -0.82611103561525
C         1.09546440425530   -1.56798501346480    0.96552236241303
C         0.66984478780253   -1.13319281295233    2.23779131743064
C         0.07338661647953   -2.05097186284986    3.14336004378271
C        -0.05362364395062   -3.41065385370829    2.79343721152308
C        -0.68269108459104   -4.24010194551884    3.74091500658501
H        -0.84984277179549   -5.28470156178392    3.53830037060986
C        -1.10694599246994   -3.69849647230550    4.93413999810574
H        -1.59373905864727   -4.31408237302670    5.67326648913081
C        -0.91180542935299   -2.34441097817151    5.20040588495821
H        -1.22847649644430   -1.89936464531029    6.13580262279642
N        -0.33896515787508   -1.52960522975424    4.32762192453462
C         0.91850928309249   -2.94626599180697    0.60295703781237
C         0.42487025944926   -3.84996726840646    1.51154388116900
C         1.29375412199457   -3.35881642027859   -0.78937119827500
H         0.75174671843340   -4.24635146364549   -1.09718697582838
H         2.36209636519163   -3.56524887156288   -0.85576528598666
H         1.05530750573918   -2.56986082845058   -1.49723196359107
C         0.36224970873942   -5.31564391889632    1.20273130626790
H         1.10643956963033   -5.59535761994903    0.46484502358371
H        -0.62233462200278   -5.58672290611928    0.82124350661273
H         0.55266218298086   -5.90224429728117    2.09696304599177

