68
CSD_code = JODROJ | q = 0 | S = 0 | Stoichiometry = C28H33BrO5Zn | MND = 4
Br        0.53908910989763    0.83444478875523    3.17043494393223
Zn       -0.07481085575860    6.80769784202984    4.01546844343145
O        -1.69332418179180    2.48683955332001    1.56441249240891
O        -1.16668072043057    4.92416031683852    3.21728075695488
O         0.15824151899809    5.16468204766923    5.72209740593253
O         2.86847986586209    3.85724263090740    5.91382964672302
O         3.33711234316613    2.49410628003409    3.36733296205137
C         1.20466738913978    1.43441264436114    1.49683361036601
C         2.57742154296320    1.59286499331583    1.33752731155865
C         3.05552914319621    1.99511178027273    0.09784488768432
C         2.18866495932019    2.23264512350200   -0.95330353141824
C         0.82653400415757    2.08158198995681   -0.76944542438876
C         0.31306490812842    1.67320757721314    0.45485103168597
C        -1.17753264264910    1.54043780409846    0.65275133042228
C        -1.64257821374811    3.81600046046306    1.09340111221219
C        -2.12156013863935    4.76897559385250    2.19167052286739
C        -1.22772835351592    3.92917797821925    4.22780815072491
C         0.07434850908060    3.93789406214939    5.01174014673211
C         1.06805356619114    5.16187484793328    6.79721061269794
C         2.53420455952279    5.14982885585121    6.36433465198171
C         4.08360941639812    3.80074419578665    5.20845882834135
C         4.17817087042200    2.45968449833548    4.49227146935899
C         3.51824652871639    1.40210667127000    2.49353212199942
C         1.77112176650991    6.60244166939680    3.15468735615934
C         2.85144748454088    7.43043057383545    3.47233691846018
C         4.12198269606193    7.22119974818725    2.95860835229187
C         4.35588468059688    6.16659344379647    2.09353870384630
C         3.30651415115217    5.33328606175395    1.74971935633074
C         2.04492892355977    5.55171910343087    2.27831933226265
C        -1.74851382372299    7.78225507107847    4.62682424451455
C        -2.33825196744605    8.82156923518292    3.90573638474934
C        -3.53100439046438    9.40820771411869    4.29853569466114
C        -4.17982442963310    8.96724429344295    5.43769802975874
C        -3.62162710395152    7.93796657612745    6.17426782564106
C        -2.42868247181065    7.36075431145271    5.76961534717759
H         4.11923699835895    2.12111207446799   -0.03892886520701
H         2.57288303634562    2.54680182477411   -1.91142691770282
H         0.14589243489503    2.27816353522109   -1.58501987863688
H        -1.41878439756557    0.56703134263105    1.09046653275460
H        -1.68738335864921    1.63231503741778   -0.31739124022244
H        -0.61648792808890    4.08829019708910    0.80798567584971
H        -2.28818864888287    3.92316711839809    0.20750725045650
H        -3.07169750344276    4.40982147127993    2.60315383856963
H        -2.26796231905600    5.76057479598605    1.75678171267055
H        -2.06601064805891    4.15329192020968    4.90255235059638
H        -1.37600392759171    2.94470800946307    3.77711657290186
H         0.92567868984434    3.82871427728773    4.33240916989985
H         0.07644110805213    3.10005090720718    5.71902022584724
H         0.86619091881335    6.08047018912136    7.35329577666525
H         0.88069118562822    4.29009807655250    7.43911751531503
H         3.17089823545989    5.43191223999929    7.21807939451907
H         2.67861341808184    5.88583992853607    5.56106959504841
H         4.12911233172471    4.60296379244474    4.45894951055046
H         4.93300828235735    3.91154550926012    5.90086638560435
H         3.87460903168587    1.65228448714314    5.17401750307406
H         5.22026852185856    2.29017310447262    4.18000644269576
H         4.55911993710483    1.37138821177238    2.13425511978030
H         3.31050735460050    0.45241596241940    3.01380856860329
H         2.70059927826824    8.26842008050765    4.14432081872476
H         4.93225331887567    7.88365946748246    3.23493540031405
H         5.34577346491696    5.99869489942117    1.69028828724111
H         3.46897588522597    4.50671643994316    1.07080219809475
H         1.24984260383402    4.87379144355631    1.99335500443380
H        -1.85283651262833    9.19223117078868    3.00978889537577
H        -3.95509567862574   10.21342639018575    3.71275492544320
H        -5.11068477050812    9.42165219748826    5.74880237332101
H        -4.11812539105042    7.58323992205077    7.06848332185531
H        -2.01503359581085    6.55744363749035    6.36654550544427

