68
CSD_code = JODRUP | q = 0 | S = 0 | Stoichiometry = C28H34O5Zn | MND = 4
Zn       -0.00359125740047   12.39298347263706    8.09690458871498
O        -3.95784428953457   11.14417699837264    6.27582182060302
O        -1.40416130443982   10.50201788693546    7.68803739658867
O         0.85069804672228   11.36770262316200    6.17418513548340
O         1.52496407032054   12.18851095896976    3.61908683364553
O        -0.95003029745582   12.21459608072567    2.04594228508103
C        -3.47054874145878   12.48123935468144    3.57448559161653
C        -3.32264191548517   12.40308409510830    2.19716490588351
C        -4.34772120524111   11.86125907330537    1.43470336228544
C        -5.50625990257369   11.41388305937055    2.04598618540089
C        -5.65178382791502   11.50542985874835    3.41923838990352
C        -4.63330437820105   12.04457059606556    4.19234774426008
C        -4.75380219166311   12.15699873163026    5.68805738697168
C        -3.72272903000178   11.34177954081848    7.64888104243022
C        -2.72248762735765   10.29753041325911    8.14390975590595
C        -1.19601763204762   10.16957427850395    6.32653839318696
C         0.29896312659207   10.07273275173720    6.06650707127702
C         2.20041621982051   11.48635448274167    5.78871930393810
C         2.40891043322311   11.31955397690383    4.27869626383754
C         1.41179683386761   11.95142553075198    2.23904298514215
C         0.27420813944502   12.80024319519714    1.68648865474759
C        -2.06551493507401   12.93294395456725    1.56168652139776
C        -1.11209623973972   13.86228378901266    7.21530359053306
C        -0.93109805774400   14.12969428262154    5.85699098369860
C        -1.69980610728992   15.06847104503318    5.18539412578713
C        -2.69421743054202   15.76386544332271    5.85014287280687
C        -2.89730657741991   15.52157404925524    7.19682707918249
C        -2.11144199210354   14.59250801663959    7.86227634612693
C         1.39714369462807   11.49270336762536    9.26916029936491
C         1.17931533898362   10.23569984728563    9.83411179689330
C         2.18086492757513    9.53574565996837   10.48814719978933
C         3.44976024010158   10.07639533111474   10.59531234930705
C         3.69966659096989   11.32073742960222   10.04482307560446
C         2.68768928042156   12.00956853743239    9.39492478876361
H        -2.67308224679009   12.89714364978102    4.17113068775916
H        -4.24374947884989   11.79412722376881    0.36127664112386
H        -6.30144443186330   10.99389624545450    1.44756433384380
H        -6.56055289453967   11.16108690632000    3.89093399474391
H        -5.80068317556823   12.04413619345435    6.00988011540518
H        -4.39425991426336   13.14478714857388    6.01450133643129
H        -3.31510496851478   12.34766535608677    7.82439906161241
H        -4.66102859896294   11.23849449905438    8.21790039104713
H        -3.06693568261414    9.29951742182383    7.83983906255408
H        -2.66761027490579   10.35104980764426    9.23403992172062
H        -1.66899086907548    9.20289388536484    6.11091663674238
H        -1.62802318246659   10.93001491540001    5.66860826441361
H         0.44311217000298    9.66966030519442    5.05812934184913
H         0.77040453601271    9.40488011428858    6.80250181745540
H         2.48447532486434   12.49973885514432    6.07685668248284
H         2.82868703704085   10.76502066539772    6.32995629542747
H         2.22299742051471   10.27915715304885    3.96946203856987
H         3.45607074440695   11.55753755481734    4.03177830551169
H         2.35202898600585   12.21102143874565    1.72685317692267
H         1.18818947390437   10.89137861700555    2.04803362806182
H         0.36365583631717   12.85996965609413    0.58936947985946
H         0.35228326228735   13.81625292864513    2.10089089974564
H        -1.95603073121884   14.00124029419807    1.81314620622828
H        -2.11856660006541   12.84999758040459    0.46388891225503
H        -0.17250746187264   13.59204022316822    5.30211355209923
H        -1.52303768599456   15.25974842843190    4.13422659444551
H        -3.30254149647006   16.48831039007908    5.32552782726937
H        -3.66927336575174   16.05896774233466    7.73272441276522
H        -2.28898987178417   14.43557645568566    8.92114354967051
H         0.19692801195837    9.78458476301826    9.76318412622405
H         1.97064321401323    8.56328196320994   10.91527738278353
H         4.23556582136031    9.53403120125906   11.10336893967014
H         4.68732013295886   11.75688942232177   10.12163318376602
H         2.91485895794982   12.98476328167420    8.97779707338559

