69
CSD_code = JODTAY | q = 0 | S = 0 | Stoichiometry = C22H34N12Ni | MND = 6
Ni        5.10492573362706   15.83523699425162   -0.00039653947806
N         3.58756108294153   14.23364452658507    0.47810146060681
H         3.57550229223581   13.89173848710576    1.43824143057709
N         1.98131365029630   16.00918890690856    0.93924245904896
N         3.99086712833225   17.40945664346173    0.75645277897256
H         4.11728421604355   17.37849122288073    1.76889409990709
N         5.84938767252477   15.61667083235788    1.68147916356759
N         5.50997186084923   14.91888655051394    2.55208450342298
N         5.25803345408756   14.28366912439184    3.46752741501848
C         4.05318329648409   13.15201217595407   -0.38314686140454
H         3.78420826502261   13.39622032531940   -1.41473575564665
H         3.60020190049437   12.18436072625600   -0.12232320901643
C         2.26388286181349   14.80666990641626    0.19118995183846
H         2.22816863843036   15.05628224769890   -0.87199275596480
H         1.46277874320380   14.08346572162955    0.41617759768771
C         2.54563500395018   17.24845701322344    0.48273759612123
H         1.98188068208764   18.06628362229784    0.96490884094701
H         2.40082319435126   17.31444897165461   -0.59919496940682
C         4.61966655978947   18.63992458508589    0.27928112346717
H         4.28730119837173   19.51387803530046    0.85844485174336
H         4.33906861609776   18.79573429649826   -0.76618079244382
C         1.98454267038848   15.85765736337435    2.39436152105914
H         1.51853192133577   16.76116525325487    2.80585809411151
H         2.99827016010909   15.78043982846074    2.81195138044059
C         1.19630955977841   14.65353602810447    2.83294937398848
C         1.81545436853399   13.61530965892778    3.51662203172782
H         2.87022150818133   13.67510601913347    3.75245956384991
C         1.08515782849351   12.50698971299162    3.91284427064010
H         1.57534901797041   11.70620855193968    4.44665573677607
C        -0.26615558002930   12.42577815568447    3.62635719872309
H        -0.83488977806068   11.56097530375292    3.93519447291120
C        -0.88926224668432   13.45884550633880    2.94451002204015
H        -1.94468180824183   13.39996360140645    2.72151531644075
C        -0.16234709345339   14.56731887866803    2.55174178474695
H        -0.64015077799529   15.37412731542361    2.01566902105537
N         6.62280931245327   17.43635120630802   -0.47941852488875
H         6.63533869834896   17.77747252644516   -1.43982811963082
N         8.22959072192479   15.66055653546069   -0.93828901778935
N         6.21937132291316   14.26113692160559   -0.75727443319566
H         6.09408951348764   14.29277898858091   -1.76984117667021
N         4.36003149055092   16.05439417270278   -1.68200644939210
N         4.70406769083020   16.74697968208425   -2.55495646914147
N         4.95976938577488   17.37814032860711   -3.47216752643991
C         6.15673698304617   18.51862854161230    0.38080860513337
H         6.42578376741999   18.27544992716244    1.41262037295373
H         6.60942563468048   19.48618185089708    0.11911883671746
C         7.94637846918841   16.86357232279190   -0.19131065111587
H         7.98140292545802   16.61473297232317    0.87208395761415
H         8.74757487093085   17.58665986067891   -0.41631804197353
C         7.66437391913059   14.42167822893801   -0.48199228898518
H         8.22833554959082   13.60348329056284   -0.96329078659241
H         7.80803248842731   14.35589535622668    0.60010999309361
C         5.59018636825044   13.03026477520993   -0.28157346994592
H         5.92250581355590   12.15688429506168   -0.86160500696205
H         5.87054737255878   12.87324193109799    0.76377175196845
C         8.22868335517088   15.81146583825595   -2.39341004654289
H         8.69213099254365   14.90623591819434   -2.80398939153562
H         7.21585399749902   15.89206708708650   -2.81250932107615
C         9.02192511321520   17.01254662867066   -2.83126796172777
C         8.40818206184799   18.05145998494862   -3.51868779925450
H         7.35392652598910   17.99445387458443   -3.75735074059927
C         9.14327541026404   19.15663130019411   -3.91483341801469
H         8.65738861442743   19.95795595358967   -4.45175442098716
C        10.49395196436859   19.23403408172776   -3.62430662893605
H        11.06646566569299   20.09634611130365   -3.93312691839613
C        11.11159704348687   18.20039108884237   -2.93836641881124
H        12.16647097268989   18.25640152906724   -2.71207723031414
C        10.37992657384489   17.09499446180388   -2.54581002548073
H        10.85337360907514   16.28769033412045   -2.00663341115466

