75
CSD_code = JODXIM | q = 1 | S = 0 | Stoichiometry = C23H45IMoNO2P2(1+) | MND = 6
I         9.63081445673599    2.40489137111500    9.58680008377416
Mo        7.57247679578039    3.11961485291807   11.28305091765229
P         8.80162489642269    4.86728777847954   12.48793414635707
P         6.10813228841475    1.21712232162779   10.77004121768067
O         6.66744784539841    4.17733887513733   10.43971523523985
O         8.78419017940280    1.53384456228326   12.79100500165889
N         6.47428352751917    3.03857324827065   13.18422651259444
C         8.18789087365461    6.56429573406245   11.92517212880269
C         6.67316238684374    6.62231901649444   12.14812338387305
H         6.41632479656104    6.70216641798309   13.20238729837152
H         6.27705673120319    7.50267128858999   11.64530340843982
H         6.17528291720530    5.75208269506609   11.71764835707187
C         8.81167749096872    7.75322021482790   12.65609083674033
H         8.67496053076738    7.68603606139862   13.73386119995303
H         9.86722834691000    7.86657333445020   12.42984652611712
H         8.31191460182744    8.66120863382300   12.32166696603407
C         8.47278833663423    6.66434083812753   10.42429279932657
H         7.97121819665351    5.85562606913907    9.88733498007909
H         8.09372033378734    7.60932140309274   10.04013706230535
H         9.53653282163748    6.61704624205448   10.20794553102733
C        10.63908126150851    4.93706450917112   12.97255312024636
C        10.94205621098322    5.74422589805782   14.23512399733013
H        10.46402857265035    5.31925739409723   15.11498271657433
H        12.01742582272470    5.72050990325581   14.40537243489340
H        10.65214970946498    6.78394674486747   14.14928180441605
C        11.43875304912895    5.47012854616430   11.78298736997573
H        11.30966238000860    6.54046805555124   11.65290356495254
H        12.49929846818847    5.28521921982756   11.94492171754987
H        11.15234677391277    4.96325692823285   10.86178043434558
C        11.08527524651549    3.49088839535800   13.21907735840062
H        10.49145811651352    3.00863978807870   13.99731638503943
H        11.04253677061554    2.91293359290273   12.29711580917251
H        12.12126069405048    3.48802409080464   13.55342549878309
C         4.68100869283392    1.79725308870781    9.67478864419162
C         5.30242157422065    2.34119953807588    8.38572294644299
H         5.99246573040909    3.15762307920994    8.61156931798791
H         5.84143221267507    1.57293677813879    7.83806346149187
H         4.52089385693838    2.73083141659001    7.73638701253774
C         3.95702141500309    2.93782698022879   10.39763952917170
H         3.37105800487515    2.58219307947160   11.24257642756413
H         4.65925446340394    3.70043818294140   10.73787823870888
H         3.27213184803315    3.41722782046804    9.70065517595732
C         3.64459498669517    0.72357668080475    9.34335271823987
H         3.22495438069348    0.27168974860987   10.24028153711317
H         2.82466980459575    1.19440830040377    8.80292629966305
H         4.04860804847938   -0.05212195269998    8.70042316858663
C         6.56983567316728   -0.58669659478937   10.38592679354171
C         6.91203580230112   -0.69727404070797    8.89955248126205
H         7.59007249783548    0.09957998950605    8.59481574675113
H         7.41163214330760   -1.64581043167620    8.71029299600734
H         6.02451502970690   -0.66488508819154    8.27468836129266
C         7.84649651600168   -0.89099083708191   11.17891385237218
H         7.70243731094084   -0.74978942516462   12.25143998187748
H         8.12506649653627   -1.93187199423027   11.02402286193151
H         8.67456629685478   -0.27936966934395   10.82362371569976
C         5.51436290944236   -1.62087483926858   10.77756870417729
H         5.31855701613966   -1.61933772210720   11.84760002569631
H         4.57754093698513   -1.48451692973026   10.25206921208783
H         5.89133810689758   -2.60872166672709   10.51679240787407
C         7.98648551135495    4.68485608200263   14.15688571220054
H         8.60916435514953    3.99283050136926   14.73793474731186
H         7.94131504071515    5.62961560471344   14.70090555457523
C         5.28260089734961    1.04554628996124   12.43417652379953
H         4.25873497498799    0.67750444592761   12.35126154991304
H         5.85920752724126    0.30362600392977   13.00126247445391
C         6.62975431354510    4.06826784763475   14.03358220037168
C         5.58662862918674    4.49466850701664   14.84818994011065
H         5.72895012239502    5.33367226955760   15.51026230361285
C         4.37239897484949    3.83242211519085   14.80222884577745
H         3.54259100219713    4.16198856130111   15.40700674845894
C         4.25762409825893    2.71407287091206   13.99533583237885
H         3.34519230060156    2.13976739483352   13.98098513056708
C         5.33310492781263    2.32887893890459   13.20242614491236
H         8.72362463302642    1.11289413386325   13.65675529823225
H         9.57088950576009    1.17812091612336   12.34660357031730

