41
CSD_code = JODYEH | q = 1 | S = 0 | Stoichiometry = C19H14ClN3O3Re(1+) | MND = 6
C         2.52078347306838    6.83151398790055   -1.35033919593751
H         2.00628549134860    7.43822505887387   -0.60453139507048
H         2.40732139369219    7.27553785286804   -2.33823874760691
C         2.21513874502109    4.67461499557664   -0.14996008296262
H         2.60182000318770    5.17050174387575    0.73138622128730
C         2.06652691717462    5.40962028849137   -1.32040860154583
C         1.54447273604242    4.76300445626990   -2.43404196727767
H         1.41077115667488    5.29029161967663   -3.36589506162873
C         1.19159166295572    3.42744852501106   -2.31727459969874
H         0.76596372052770    2.89238858674516   -3.15072153071265
C         1.40445936903766    2.77480147310299   -1.11703201168948
H         1.14524236615973    1.72936617972324   -1.01089343127034
C         3.24846618962892   -0.12271049739559   -0.10084810199145
H         2.33608938548653   -0.53400212365573    0.31161070809642
C         3.96545783809127   -0.82553255442154   -1.05295552234569
H         3.61422797021437   -1.78564691306528   -1.39290280557341
C         5.13557503393842   -0.26878513580625   -1.54564677530017
H         5.72467632741470   -0.78274859342266   -2.28847004139194
C         5.54372527543946    0.95877176976879   -1.05522193290888
H         6.45874816610105    1.39928192907631   -1.41343933473917
C         4.77256871746670    1.60620998092692   -0.09189357669522
C         5.16590172117140    2.88351960081265    0.52573105967192
C         6.29884248804630    3.59889030085514    0.14386922934231
H         6.91410537830719    3.26007711821496   -0.67236350027443
C         6.63336892517969    4.75955188384543    0.81829726357875
H         7.50482444195214    5.32576426640935    0.53079166858651
C         5.83304593138009    5.16907633449430    1.87303185552390
H         6.06350971764644    6.05472558306537    2.44139264718182
C         4.71282393582911    4.41825360096809    2.18297678989980
H         4.06507570590344    4.71157259564832    2.99928179196283
C         3.20417948816893    1.23598703833126    3.29631675715325
C         0.86492397496678    1.20416871546225    1.73470318279378
C         1.64235705473600    3.55404712874511    2.93992595592417
N         1.92231213694394    3.38188432064213   -0.04615894209986
N         3.62824131712053    1.06409164707701    0.36726964979170
N         4.37043313473561    3.31440705515947    1.52281167955866
O        -0.08446852953328    0.57604072931283    1.66648121241784
O         1.16396309263597    4.35620728642955    3.59380964824203
O         3.64366490732533    0.64183822635297    4.16134347542970
Re        2.51797388300475    2.25192266700610    1.76889108820281
Cl        4.27100935579538    6.88052127105031   -0.93778472592411

