49
CSD_code = JOFCIQ | q = 0 | S = 0 | Stoichiometry = C24H22N2Ti | MND = 12
C         5.99142490770757    1.34203805989594   19.87622879336222
H         5.21236474157409    1.60042668985991   19.17103859433056
C         7.17273016021246    2.06273790373821   20.10471630801795
H         7.45508092975037    2.98632588714625   19.61365083069850
C         7.84384906881361    1.47222124884933   21.19829850123532
H         8.71452224279362    1.88387771888807   21.69521449468937
C         7.05614468283779    0.39934648111995   21.65729803887090
H         7.22137053916921   -0.16805882224778   22.56353079479236
C         5.93913065885964    0.28198454509318   20.81112909611391
H         5.09524631539863   -0.38261462204874   20.96248558464645
C         6.41095009873731    0.02356210280748   17.26050925769731
C         5.15619627760880    0.01914033020207   16.50089172470478
C         4.48464005098807    1.21193552528215   16.21937326017384
H         4.91045031626750    2.14874357691393   16.54848593231864
C         3.28742366763455    1.19913398990648   15.53213643646690
H         2.77957027062980    2.12974429263390   15.32433318320242
C         2.73099169405602   -0.00039651502706   15.11559198763369
H         1.79448722648723   -0.00745430201457   14.57808743240317
C         3.38348035686059   -1.18996506095127   15.39309955335633
H         2.95818493450881   -2.12849323288938   15.06752277571704
C         4.58070357752301   -1.18266119264302   16.08314473830860
H         5.09391963509588   -2.11537414911762   16.27622890732593
C         9.50681390124457   -1.04588126201141   21.01562200186045
H         9.78984854986983   -0.64186451192558   21.97837422788844
C         8.56044959555743   -2.05784290596018   20.79185959862867
H         7.98742681335378   -2.57574492960257   21.55135203131463
C         8.61573714543723   -2.41314160951020   19.42857873888735
H         8.09970510044533   -3.24655478020274   18.96779855983663
C         9.58941897764414   -1.60711945303953   18.80721286215082
H         9.92615290040152   -1.69772309187751   17.78208123207777
C        10.11821935331317   -0.73447467197878   19.78671367849834
H        10.96421044974698   -0.06934131473753   19.65071556452644
C         8.15055034117725    3.15188550912091   16.21188828903325
H         8.48177408001606    3.41064108776375   17.20949723730879
C         7.55361768533172    1.90808909707650   15.98907425676983
C         7.13111411787758    1.59781700667486   14.69364489764582
H         6.69835912331017    0.62902897950194   14.49580438446548
C         7.27625739950721    2.51212300823102   13.66982256597538
H         6.94340607969687    2.25649967509593   12.67427711618051
C         7.85466939407507    3.74949415530567   13.90839039347768
H         7.96585872427758    4.46194675462138   13.10456702283411
C         8.29502075568414    4.06296359159683   15.18320056592389
H         8.75050735788910    5.02364284623005   15.37703053725027
C         7.44332310464535    0.94854246838002   17.08957902571169
N         6.65273659016830   -0.90699019930761   18.22310316717151
H         5.92754214949923   -1.62257765493731   18.28657557381107
N         8.45619419911156    0.80722006200097   17.98657069181492
H         9.32088233452639    1.27478257786560   17.70970874441418
Ti        7.86174142267831   -0.16132088977185   19.47836080847631

