60
CSD_code = JOFGIU | q = 0 | S = 0 | Stoichiometry = C24H29AuClPS2Si2 | MND = 4
Au        2.70115735520572   11.10119536996294    5.31311479497214
Cl        1.49883064095991    9.25324308263943    4.73130392154931
P         3.82648995512065   12.89757065441099    6.02675783603080
S         1.53159276973098   11.77155061826095    7.30519639466586
C         4.08119976634568   12.54646156819603    7.76591168088593
C         2.93425894384842   11.99091122623223    8.35081215997522
C         2.91786652549188   11.66234336505407    9.70198813341016
C         4.09529554913408   11.87568933336863   10.41405137869260
H         4.11344431723381   11.61730630682614   11.46140483219029
C         5.24708119967335   12.37850382306615    9.82926233266077
H         6.14419115572983   12.50175650399573   10.41733844198949
C         5.25305081774951   12.71659015305439    8.48685468545001
H         6.14225471044553   13.09754273705469    8.00478657506278
Si        1.35805509194351   10.90345493960826   10.50213611599409
C         0.98959452191810    9.22851949924570    9.67903161601880
H         0.76727151176430    9.34632719888059    8.62362340183154
H         0.13266719987739    8.74976601882951   10.14324385573140
H         1.83352912165743    8.54900375463632    9.76383726070774
C         1.73642626598942   10.62577809819635   12.35075232862146
H         0.86447470353654   10.21153214931832   12.84529606600507
H         1.98850393912826   11.54987271939310   12.86125320295397
H         2.55292209314236    9.92626014836239   12.49840787950154
C        -0.07367261065628   12.15179492173479   10.35258052270945
H        -0.29232162869496   12.36440418976421    9.31121677359810
H         0.16020643581226   13.09284855586016   10.84317495221385
H        -0.97760121723319   11.75851039989885   10.80720945449610
S         4.35697547096593   10.84160208528358    3.65902784545176
C         5.36168704225713   12.96173422606033    5.10656746852849
C         5.58158435506051   12.01194584601341    4.10287429917919
C         6.79365859551909   12.02663500573592    3.39791094751331
C         7.71732994315203   13.00855004767686    3.72323254215081
H         8.65391427379985   13.02758362775976    3.18869299053056
C         7.48418924082824   13.97389046042269    4.69468204320933
H         8.22572498906879   14.73097184017684    4.90102105368911
C         6.29647757098816   13.95563910743753    5.39268357983267
H         6.06756698164450   14.69784917628250    6.14719480762984
Si        7.15407939231250   10.74279235855505    2.02882251614455
C         7.12275538910943    8.98645766629846    2.76326072621568
H         7.77486661678410    8.90277774247772    3.62839997236787
H         7.45275399375779    8.25798083376907    2.02892080167529
H         6.12163695939919    8.70981223974434    3.07491899778611
C         8.91274924161931   11.08569339674564    1.37224296909927
H         9.66504088338064   10.99239210187238    2.14878401345971
H         9.00139910859600   12.07448135154616    0.93398525245501
H         9.15929926064727   10.36776358674108    0.59753907218072
C         5.92522348580723   10.97607895567788    0.59237926767662
H         5.94167272044594   11.99381705966479    0.21213243098538
H         4.91132647500150   10.75542744166888    0.90770871911570
H         6.16727230918368   10.31155205214626   -0.23132966843895
C         3.04731833747606   14.50665794335390    5.86819005910769
C         2.47115676401428   15.15783811597267    6.95439990067494
H         2.52026921601656   14.71557272019083    7.93978877971545
C         1.83674254675051   16.36954900043763    6.75145635141002
H         1.38831899241085   16.88471114729244    7.58762244295257
C         1.76934163617227   16.91858723216159    5.48031318500103
H         1.26823653267842   17.86307359021647    5.33007143455313
C         2.33607484564823   16.26071863343457    4.39849297991986
H         2.27521044202141   16.68998521668634    3.40974047125215
C         2.97452349978429   15.05050749691341    4.58595874515646
H         3.41925375284423   14.51853335770369    3.75386640386910

