97
CSD_code = JOFPOK | q = 0 | S = 0 | Stoichiometry = C38H34F12N6O6Zn | MND = 6
Zn       -2.23527667783098    0.00009775499786    5.77517318837342
O        -1.93127975861688    1.21772958710952    7.40400791781678
N        -4.23419662827772   -0.07827967731578    6.14079680023204
O        -2.57545843655859    1.71910412182805    4.71497379573501
C        -6.46375327556178    0.17535526438112    5.32323316954951
C        -2.63192336688339    2.88250423107051    5.14666414336827
N        -6.04102240276445   -0.30096811847124    7.62262480752128
C        -5.07701179798752    0.14731314433189    5.14066587882257
C        -4.75532749180152   -0.30028951394806    7.34774461585859
C        -2.00545308900119    2.45450008019100    7.44467289913334
F        -3.98191899159642    3.45250716877694    3.27095537034820
C        -7.37905335043184    0.43975933970314    4.22561220122541
C        -2.35027921218743    3.34677581970318    6.42918972252091
F        -2.70805900010962    3.83961870609582    9.27198565711929
C        -6.88664205553011   -0.06110590537458    6.63961303758297
C        -7.88557746680153    1.52686370651140    2.13784448456562
C        -7.01171099788019    1.27475694777453    3.16083279401838
C        -9.53437266824705    0.10591636478777    3.16806903916757
F        -2.02285059821369    4.34832600042924    3.35910306201984
C        -1.67463245938586    3.12485088311237    8.80279637366690
C        -8.65811192250106   -0.12729805862299    4.20062211747695
C       -11.29029124192372    0.67421631904336    0.73278711834581
C        -9.17459110587728    0.94712026913851    2.09820825895336
F        -3.58993734066450    5.04706510189502    4.65626215296434
F        -0.64173331372661    3.97744238165353    8.68588106186972
N        -9.96444598685596    1.26791917015515    1.02302144285775
C       -12.30218584774367    1.09743930999563    1.80423046412759
C        -3.06089345796707    3.94730490647328    4.10503992322671
O        -9.53368889111620    2.12212429269578    0.19415393429571
C       -11.16459769719532   -0.84621127223078    0.58869556598677
C       -11.76490823878942    1.23783794572128   -0.60933811576043
F        -1.34562299148375    2.23774741910397    9.73870297257237
H        -4.63265286980229    0.29457430079673    4.16694206895043
H        -4.06695628582569   -0.49390524123573    8.15768990060855
H        -2.40745634614088    4.39967012130085    6.64630532507783
H        -7.93288795745031   -0.03936015083253    6.91412922011348
H        -7.60402297870557    2.17925768071960    1.32644778793790
H        -6.04408698957306    1.75132116248376    3.15484531753460
H       -10.49711402013414   -0.36947202734757    3.21910449959808
H        -8.96026575942479   -0.79162115180222    4.99653575284567
H       -12.09549450227709    0.67784663547342    2.78230520812307
H       -13.29540027795735    0.77550212288602    1.50114192609437
H       -12.30742592409789    2.18167235448486    1.89354551505089
H       -10.85590238088438   -1.34190779169574    1.50186195562920
H       -10.43741742123690   -1.08101500322489   -0.18565565626469
H       -12.12619093805429   -1.25505618462218    0.28851825794520
H       -11.86122066594327    2.31891189060794   -0.55919536910240
H       -12.72944802816088    0.80743667803230   -0.86335475547597
H       -11.05373200644276    1.00228685955137   -1.39644359079940
O        -2.53921271192807   -1.21762582751573    4.14638179522961
N        -0.23633845557584    0.07847326740345    5.40952218149818
O        -1.89507055464874   -1.71888805977496    6.83543011298083
C         1.99324607240935   -0.17528516254664    6.22700584382885
C        -1.83843370157409   -2.88229113971351    6.40375980934095
N         1.57045492959969    0.30107635682202    3.92763196566440
C         0.60651307591450   -0.14726053714171    6.40960932096783
C         0.28477359151791    0.30055216171975    4.20256520294436
C        -2.46487010038933   -2.45438595133407    4.10572197329412
F        -0.48841610540717   -3.45214802917936    8.27945895468743
C         2.90858355482336   -0.43964371749581    7.32461807622703
C        -2.11997335939672   -3.34660958730173    5.12122418173873
F        -1.76177565723363   -3.83924655554168    2.27840417027585
C         2.41608735983717    0.06114460577458    4.91061480686845
C         3.41518573849389   -1.52682050231007    9.41233740465722
C         2.54127779371629   -1.27463906049905    8.38941855229658
C         5.06394019211086   -0.10583889149765    8.38208008503758
F        -2.44750005908268   -4.34793489455039    8.19148331061377
C        -2.79542395768586   -3.12477088537121    2.74755233027263
C         4.18763539647813    0.12743339830557    7.34957766892673
C         6.82006569058860   -0.67449900746455   10.81714510320031
C         4.70423193938069   -0.94716500908056    9.45189943503232
F        -0.88046927059809   -5.04684724298650    6.89434969962948
F        -3.82810069542369   -3.97764044167669    2.86438065235595
N         5.49413402535489   -1.26801459795725   10.52700484646528
C         7.83195223485637   -1.09796296086872    9.74578218522139
C        -1.40947416700073   -3.94702137168136    7.44546358760182
O         5.06328510374090   -2.12204963091803   11.35591090330878
C         6.69479208275744    0.84598398076540   10.96113663529906
C         7.29462040783697   -1.23807107729764   12.15930488564306
F        -3.12461579230996   -2.23772603167414    1.81165654210500
H         0.16220917114266   -0.29435897766719    7.38338093478382
H        -0.40361903967566    0.49394892353579    3.39257965086199
H        -2.06265588879137   -4.39949879591610    4.90411830517526
H         3.46235112023805    0.03940244550643    4.63606428738815
H         3.13369538498316   -2.17929222300287   10.22370199191463
H         1.57373724233079   -1.75137743607647    8.39533033644233
H         6.02659599388295    0.36973424465382    8.33112116254862
H         4.48975894784301    0.79177598231977    6.55366480068936
H         7.62525413332040   -0.67853466083923    8.76764153870278
H         8.82523675724965   -0.77610534411695   10.04874639992967
H         7.83704784413395   -2.18221134813559    9.65666196012553
H         6.38627684679775    1.34164192600105   10.04789461344689
H         5.96755034448288    1.08096816522350   11.73536680557167
H         7.65640475565547    1.25473478020693   11.26140026927256
H         7.39073689394851   -2.31916781469485   12.10929587433531
H         8.25925670045010   -0.80783019263988   12.41322149608293
H         6.58354130450785   -1.00229321810216   12.94642813005230

