129
CSD_code = JOFSAB | q = 1 | S = 0 | Stoichiometry = C68H50AuN2O4P4(1+) | MND = 4
Au       10.65007246894135   13.62338152510908   12.94185159291170
P        11.66061497175209   11.63227502579162   13.92979880266557
P        10.58519716940521   13.42157293530004   10.51010465470464
P         8.33191016043308   14.27576131314407   12.94340442218038
P        12.08171793429618   15.01293578601811   14.29184507068801
O         6.16256851586028   16.01256984245568   11.13940392170802
N        13.34806656657389   12.79376184188511   17.41942903491024
O        13.46236785336098   15.10461108219830   17.30138656689152
O        12.96581540082764   10.59036735475534   16.81923770701648
O         9.11884676734054   14.83229412460216    7.86451473986332
N         7.43910225376198   15.62939509587162    9.24461422595519
C         7.05454247757603   12.99816858183524   13.07515063254633
C         7.12534152754885   15.54559507434713   10.59300803666468
C         8.21184845475581   14.72766559515994   11.20991869035229
C        12.54388490809143   13.77096503418422   15.50336286303088
C        13.43944152556964   11.52705294675141   11.81681241049883
H        12.75215685334064   12.21832535114558   11.33731643679019
C        10.41085077552703   15.99861483069541   16.19596726633499
H        10.09067547393735   14.96397945773130   16.25880527827317
C        11.45152781588987   16.34302885303792   15.33401836225409
C         7.47263773465920   11.71764327807332   13.42373562458908
H         8.52327704904603   11.53134736592825   13.61549525167060
C        10.87446727192722   10.17273885686908   14.64746386467500
C        12.91283759907824   11.76912104385068   16.59319706756118
C        13.16108505036601   14.03839425617612   16.83667427408273
C        10.01800958703895   10.72991770560134   10.77919828281551
H        10.34733743249136   10.86823635713120   11.80511461779551
C         5.70974881513659   13.26517038684821   12.82840791979217
H         5.39379234014180   14.26104814249372   12.55086909288822
C         8.61131113074018   14.95164447330833    8.94689398755022
C         6.54527827904255   10.69850841447317   13.53439952385162
H         6.86906225897367    9.70614186247323   13.81139564268182
C         6.12809683254775   17.56907737641692    8.59205339706401
H         6.32604255436089   18.01515162108722    9.55415020813052
C         7.73996013651861   15.76738067843773   13.76580378134339
C        13.92914446921082   12.59566863109821   18.70504183928548
C         9.09235455845719   14.38517189628107   10.24603663820602
C        12.38766050853077   12.43788654754318   15.36140421362744
C        10.04248723880252   11.80251686475582    9.89599244837038
C         5.34996323179463   18.22958396741044    7.65805576730978
H         4.94214921449899   19.19974279658719    7.89666913520741
C        13.15764170714299   11.04459761332142   13.08918662192512
C        14.58595094021526   11.11624238335335   11.16309227097796
H        14.80504586579597   11.49215898187700   10.17486817254987
C         9.63042051060666   11.64122896905390    8.57458343908410
H         9.65828363212311   12.47903858121217    7.89156616708369
C        11.84203996505612   17.66949601522102   15.19678536127581
H        12.62898798907707   17.93479032901686   14.50408915773366
C        13.55169445197365   13.41404303034227   19.76037179581094
H        12.82238633010961   14.19411150436248   19.60745621931660
C         6.64548729865958   16.31894334493464    8.28320786234679
C        10.00644856380553   10.37889183633005   15.71817276750199
H         9.91074168314721   11.37051557234312   16.14627155569016
C         5.09917234722514   17.65321053162019    6.42419174173209
H         4.49547113884324   18.17470413868040    5.69759839567434
C         9.20183201354661   10.39744203176472    8.15068551714198
H         8.88648478462854   10.26207616084215    7.12715335070385
C         8.42067152615357   16.94364572128541   13.45349496268407
H         9.19764701632567   16.92517970703652   12.69654121232135
C        10.97425825183266    8.91896922312813   14.05368774138959
H        11.63045842850081    8.77185595124065   13.20582449182039
C        14.02341468274523   10.14974504704545   13.71483825409970
H        13.79542047265281    9.77552188782261   14.70339658755257
C         9.80272133817006   16.97275571125131   16.96075256347259
H         9.00653077155879   16.70766499357410   17.64012068684572
C        10.21362587976799   18.29236987200274   16.84901192070437
H         9.73988297263222   19.05391819989887   17.44938918430786
C         6.78002426467612   15.75488451528878   14.77034633470546
H         6.27717228622112   14.83314523514789   15.02917583286383
C         5.20568419453869   10.96070028702351   13.29565483722638
H         4.47877095585527   10.16767708250601   13.38434455767131
C        11.71564902195167   14.08411439708519    9.26668276590995
C        13.93530772261980   15.26768058786556   12.28980734853393
H        13.15849380613445   14.81879766015905   11.68119606086311
C        14.67833641439029   16.08486390746409   14.44301098239926
H        14.48913047087551   16.26094210257840   15.49273348277357
C        13.69839741049123   15.50552306390560   13.64011840651513
C        11.89681046765530   15.46578094489497    9.24271517382474
H        11.29030474499815   16.09625024925343    9.88331138013096
C         8.09856111510404   18.11617414815074   14.10540539838498
H         8.61275706437473   19.03210902181232   13.85561752195900
C        14.12744367088184   13.22437524944449   21.00400909617568
H        13.84015532131888   13.86232999320043   21.82554451984709
C         7.11662981288834   18.11229187240429   15.08444130764661
H         6.86217433933555   19.03018833039539   15.59190736879758
C        15.06149916147879   12.22026336200338   21.19584932649823
H        15.50613610455202   12.07539696796922   22.16827252984179
C        15.16474782063006    9.74199928095897   13.05037564901278
H        15.83920864477604    9.04608596265301   13.52617033926803
C         9.28566640733835    9.31825516249404   16.22969032657226
H         8.62578806539559    9.47056981835111   17.07054921265954
C        12.51654772327843   13.25568650538356    8.48768710126644
H        12.38881093057027   12.18198037517707    8.53126441158472
C         6.46626370216287   16.93568956037602   15.41895987881581
H         5.70869995956751   16.93770409271812   16.18836785755968
C         5.62389658603038   16.40773370487381    6.12258487396511
H         5.43047263463067   15.95549777837788    5.16209510277689
C         6.39465110463543   15.73141769091279    7.05125383142563
H         6.80142588747109   14.75940256058678    6.82109863524799
C         9.40825590015127    8.06036280716711   15.65886912480521
H         8.84540583786888    7.23162229788320   16.06072605672102
C        15.44816645886889   10.22519057647486   11.78111470928974
H        16.34500177459540    9.90479597914299   11.27307668548790
C         4.79148916424080   12.23808117285714   12.94552704420103
H         3.74631762078418   12.43479386019776   12.76014959255718
C        15.42790132255215   11.40460306920986   20.13852242604331
H        16.15748266011172   10.62286896159760   20.28374962384714
C        14.86912805441470   11.59106764280593   18.88673278196352
H        15.15484663328701   10.95978652644286   18.06023139892624
C        10.24555662052946    7.86395911735602   14.57216632056782
H        10.33259432234042    6.88354167451030   14.12790108261509
C         9.17440299862865    9.32667805046058    9.03250105375730
H         8.83326036120564    8.36063676471676    8.69274379303716
C         9.58373684098872    9.49122729593835   10.34588423930569
H         9.56214371987972    8.65864537982116   11.03303863567957
C        15.15225897161522   15.61507165376464   11.73391693233272
H        15.33376907849501   15.43498930744305   10.68463019508441
C        15.89022856050515   16.43111668974346   13.87441164096407
H        16.65490757026593   16.88530197511096   14.48633348037809
C        16.12779050061205   16.19728645990596   12.52734520606520
H        17.07815533197894   16.47216484582452   12.09560126717574
C        12.83726491020259   16.01875970953445    8.39658680699570
H        12.96748036671990   17.08996938369547    8.36186471987734
C        13.45784731582884   13.81985031100657    7.64593596746473
H        14.07053830989165   13.18355536737932    7.02475352769956
C        13.61509407916454   15.19584756326872    7.59599502891145
H        14.34899455442689   15.62952347281650    6.93386195662759
C        11.22398196902960   18.63847972143021   15.96656999823703
H        11.53380664313958   19.66907937724979   15.87827595459797

