67
CSD_code = JOFTOQ | q = 0 | S = 0 | Stoichiometry = C34H25Cl2NO2P2Pd | MND = 4
Pd        8.70417154698133   11.60047566650412    7.69547037160584
Cl        6.73643945705927   10.83675668529571    8.51819771107153
Cl        9.11223486212503    9.84361291641312    6.32376016491027
P        10.63283062645603   12.44679271506631    6.92075597010951
P         8.42496448456301   13.39349928565161    9.01875318002735
O        12.61816361801995   15.25184610703330    6.69299674327849
O         9.45865639760755   16.59682978208352    9.71960503368256
N        11.20029261937164   16.26512319581845    8.22416946560940
C        11.06612959913235   12.66337739756150    5.18304883618667
C        10.58387450237620   13.76684605007412    4.48510700725736
H         9.99793927498617   14.51663092646154    5.00221035802263
C        10.85803395374089   13.89693302232719    3.13706125678728
H        10.49461727258958   14.75681991554421    2.59404918022156
C        11.59203085538537   12.92069282113677    2.48180653087691
H        11.80075473929932   13.02363277957225    1.42734414964404
C        12.04862915755178   11.80859204036288    3.17138722973478
H        12.60753571318644   11.04336868958643    2.65374237743688
C        11.78504500814221   11.67255440813567    4.52158767683388
H        12.12162930935260   10.80229740418552    5.06796034288433
C        12.06786139332594   11.65765423363348    7.70030615930270
C        13.36262981449780   12.12214171738981    7.48812781904143
H        13.53349419122419   12.96122898820042    6.82850117522191
C        14.41735743619511   11.49835523280240    8.12934085146283
H        15.42567252552728   11.84976820450928    7.96802847823055
C        14.18440234996845   10.42425765704450    8.97525689841345
H        15.01417735033276    9.94166669467580    9.47003901051302
C        12.89398971578317    9.96422289938806    9.18526200640884
H        12.71819593726694    9.12287701383793    9.83852836445934
C        11.83131439583966   10.58139228727340    8.55014348221964
H        10.80919547724947   10.21639121391601    8.67940678324664
C        11.65060395228314   15.22476773220031    7.41251287996690
C        10.69036157120264   14.11694479616543    7.62099594807215
C         9.74907930227483   14.51882380489253    8.50985623874920
C        10.05052524133401   15.90775372347546    8.92615808941427
C        11.83501733694715   17.52966870995332    8.32746704289306
C        13.22063250662984   17.60325747603765    8.38361985781284
H        13.81050422110337   16.70149237722889    8.34540012723216
C        13.83323955247113   18.83965646126602    8.47807104566146
H        14.91050759493763   18.89743639474082    8.51718084505232
C        13.07246769718935   19.99533957826605    8.53003439744028
H        13.55545051328111   20.95753631128708    8.60912592340932
C        11.69116682867210   19.91469333415672    8.48078200057629
H        11.09384291258950   20.81300339253191    8.52086371336377
C        11.06636540328512   18.68542828265110    8.37270594415872
H         9.99064224048452   18.62064406395707    8.33391061584148
C         8.89516585608242   13.00068284527498   10.72685608134309
C         9.19477990371492   11.67481135914725   11.02608048705553
H         9.09041886790883   10.91252002353020   10.24867052480480
C         9.57936889667362   11.33287413444084   12.31013585395976
H         9.80458496735000   10.30480473335206   12.55073709135604
C         9.66787754196761   12.31165834210537   13.28742799897179
H         9.96699269896193   12.04441928333551   14.29007719712111
C         9.37030987122298   13.63234836270651   12.98642929231732
H         9.43895041701295   14.38990924923711   13.75286497213342
C         8.98401668449603   13.98561013944281   11.70627868121928
H         8.75304030057272   15.01287957770624   11.46208195676772
C         6.96142938917266   14.44271734343905    9.13270856817300
C         6.00620586896940   14.20459014086783   10.11561292343518
H         6.16813022272782   13.41709531478693   10.83857567598406
C         4.85716358042758   14.97275004867287   10.14922965466557
H         4.11393361796902   14.79379869323349   10.91179476295029
C         4.65598103195219   15.96624202467324    9.20427488883512
H         3.75782229817881   16.56490371735814    9.23507274368332
C         5.59762562351595   16.18762971914681    8.21141239757629
H         5.43153857343047   16.95451488565715    7.46923336857643
C         6.74612783425004   15.42098974314362    8.16600330150666
H         7.48026549365212   15.57446592882173    7.38440229341818

