52
CSD_code = JOFXOS | q = 0 | S = 0 | Stoichiometry = C18H30OPRhS | MND = 8
Rh        3.17218204897778    2.78522618202520   16.37446583261431
P         4.50781679550196    3.96706349534064   17.75102998756562
S         5.13315045359679    1.93026327258580   15.40767035938220
C         3.16608837546967    1.34626859199506   17.81587253182492
H         2.36089034115336    1.52864094169138   18.53017954317002
C         3.90284707179747    0.24163056998413   17.96520813492788
C         5.03252317163881   -0.19333671240754   17.16866928798257
H         5.44812612447629   -1.14153353285922   17.48144162273856
C         5.57406519150365    0.42593872835463   16.11356575892489
H         6.41031738144577   -0.02107115161873   15.59359750004965
O         3.67842331996435   -0.71092493554501   18.96232638859411
C         2.58811886963266   -0.54698333627081   19.82098082065314
H         2.59093753358435   -1.41962694170319   20.47389312476466
H         1.63897014030898   -0.51073844272757   19.27267334602820
H         2.68090142102814    0.35858116250748   20.43394710045325
C         1.84154466239374    2.16971710810894   14.73650103085475
C         0.99822642084588    2.34274055325437   15.87301058581665
C         1.11044205672580    3.69760972442461   16.29543958934996
C         1.92421941007066    4.40203794808311   15.32152604749217
C         2.35466069061357    3.47038090755284   14.35847427511555
C         1.91413005024886    0.95114759527415   13.86833948073154
H         1.16664750873055    1.01747898349048   13.07441850514132
H         1.72562629721203    0.04865828961622   14.44552171220539
H         2.89644782147578    0.86599324166402   13.40777397211207
C         0.07590769205740    1.30853736686719   16.44075298719417
H        -0.82660748425441    1.25460016520940   15.82830922712430
H        -0.21864502377439    1.55723346378522   17.45789166367931
H         0.54217943870798    0.32498950571317   16.44483014786960
C         0.25281694757197    4.35487514449224   17.33502291050154
H        -0.73500416941856    4.56345070095828   16.91772838737403
H         0.68400168388165    5.29684917368057   17.66606672627438
H         0.12213086571383    3.71372537500322   18.20492696315229
C         2.04630216213308    5.89433650462933   15.23911906437679
H         1.14887681170530    6.30589054379164   14.77166997407839
H         2.90560687490325    6.18715749732451   14.63988068840856
H         2.14488361786209    6.34413942772101   16.22588298218606
C         3.09026545925319    3.74010780806692   13.08325343797516
H         2.42445256760668    3.57336697568519   12.23456719553902
H         3.94485802066227    3.07168640414161   12.98181940259713
H         3.45108153570773    4.76491212755984   13.04453001459707
C         5.80931621687758    3.08187854636070   18.67887434657513
H         6.41978017303454    3.78917561790402   19.23930352465617
H         6.42864552880701    2.53411399123496   17.97174949179700
H         5.34678035125984    2.36738955965137   19.35606309987092
C         5.51172897966867    5.23967686789587   16.89410786465397
H         6.17306291533729    5.74595363041137   17.59609416676034
H         4.85566848486451    5.96585271559276   16.41839706113171
H         6.09847085029409    4.73913412544534   16.12496635647101
C         3.73969297090466    4.95175019132360   19.09942652839328
H         4.50441958681969    5.47594925157595   19.67095731641301
H         3.18960590610804    4.28061756713113   19.75613109532619
H         3.04491787726475    5.67418750801759   18.67645083654542

