64
CSD_code = JOFYOT | q = 0 | S = 0 | Stoichiometry = C29H28Cl2O2P2Pd | MND = 4
Pd        1.50740325412269    9.63307072740037    5.24192029341449
P         0.63245520291900   11.42249303483525    6.22348222432679
P         0.62038349234503    9.93200421911766    3.22832352426927
Cl        2.43737683446518    7.78577552225197    4.27655374271980
Cl        2.49042563495616    9.25977855118588    7.26440216547930
C         1.83637640110289   12.75188729900028    6.49163578235260
C         3.16148163194838   12.45227410189386    6.18189082565668
H         3.41287103385094   11.44825235755146    5.83161957978286
C         4.14590156257199   13.41015335977094    6.33842881284718
H         5.17260095631155   13.17315276652866    6.10325704201806
C         3.81211652923530   14.67340049099197    6.79969212734122
H         4.57931680568619   15.42275601931318    6.92606138962831
C         2.49358616949633   14.97996000716553    7.09610754231281
H         2.23521009272137   15.96760110423030    7.44963386632158
C         1.50326601429516   14.02661793410208    6.93942891838855
H         0.47530705593809   14.28057546225807    7.15860297187148
C        -0.12991589397041   11.00174852968029    7.81341778834037
C        -0.73454092753975    9.74608174781173    7.84978824739672
H        -0.67924726574611    9.10592937710054    6.96425944403089
C        -1.34535211121554    9.30340868151861    9.00546482629903
H        -1.80565206261763    8.32706350753102    9.03833493258209
C        -1.34734667917002   10.11044223361347   10.13386080538350
H        -1.81600939015767    9.76313901404266   11.04263940123392
C        -0.73015472334834   11.34880821233413   10.10550867301383
H        -0.71548033695494   11.96526508161550   10.99236482497389
C        -0.11766195429480   11.79964601708558    8.94796870873256
H         0.38701447243439   12.75420124512205    8.93824727304046
C         1.83918218860691   10.51747907754140    2.01892232396252
C         3.15572038544945   10.60470648523078    2.46756467537723
H         3.39382673290536   10.29323557478038    3.48853246616613
C         4.15042654677322   11.05941099404625    1.62215409085765
H         5.17015962704575   11.12031979647491    1.97137759523325
C         3.83616410958137   11.43422383156800    0.32568803564345
H         4.61158380729953   11.78672692266148   -0.33802061924126
C         2.52661551013391   11.36094336369890   -0.12122113892171
H         2.28346580241612   11.65877568610669   -1.13088441517693
C         1.52610031309216   10.90902787124715    0.72082888720378
H         0.50535102239449   10.86873712018016    0.36592365598521
C        -0.15032177333786    8.41921178665986    2.59294598815691
C        -0.81066090672019    7.66350182562406    3.56083709365180
H        -0.79782271372703    8.00734867791889    4.59838707626250
C        -1.42268745124378    6.47575956536568    3.21627525229645
H        -1.92560493712289    5.88464996805416    3.96719489828418
C        -1.36928407693004    6.03180059614560    1.90291880661893
H        -1.83733170612737    5.09716264844256    1.63182818671256
C        -0.69641288269681    6.77003414054860    0.94512377125286
H        -0.63741203446286    6.40935043365939   -0.07136729160595
C        -0.08260322816118    7.96461556400040    1.28437495969171
H         0.46750256320605    8.52169788583236    0.54063455438825
C        -0.81039094079909   12.21451194583871    5.37761167626836
H        -1.67725170016927   11.57550261302978    5.58369364795058
H        -1.00740426261412   13.18254684310886    5.84855657341281
C        -0.67353440092063   12.41666558617229    3.86229430652807
C        -0.81426561572294   11.10226387882361    3.07994787537734
H        -0.96081349280492   11.32298599385977    2.01938538668429
H        -1.69692645288362   10.55707119316431    3.43430702867573
C         0.64553751167328   13.11457585653365    3.51607305900347
H         0.71584246511179   14.07399643362765    4.02574525128087
H         0.71845864928723   13.27715138106442    2.44267990203447
H         1.48105076154275   12.48745645003485    3.83542676569982
C        -1.78725073937489   13.37307639968783    3.42344629359680
O        -2.46410375489401   14.02964550349914    4.16695649354175
O        -1.91303152809379   13.44347096645391    2.09453372828543
H        -2.59890519709962   14.08817253426730    1.85702742511289

