99
CSD_code = JOGDOY | q = -1 | S = 0 | Stoichiometry = C54H42IrP2(1-) | MND = 6
Ir        5.94420005430200    6.33951518539470    7.92191725918137
P         4.23519706612381    6.42215464167085    6.41598815987950
C         4.11282194118249    6.50433114488318    3.56151527631219
H         3.70622217748098    7.50315506823345    3.63371429835855
C         5.02769212922899    4.54202050839787    4.59382770323404
H         5.33622337186976    4.01585380019446    5.48584505076687
C         4.90561777997980    2.22760062456851    8.05351446219504
H         5.73793673096776    1.98411455856781    8.70235298799313
C         2.73021116708864   10.17123680933272    6.81429013445903
H         3.03175194461449   11.06148086538295    7.34851696875140
C         4.43397305978790    5.79850633448049    4.71570994853482
C         4.44222040018124    3.55856209450682    8.03299032727500
C         0.97040679060245    6.24312133399849    8.24279844350857
H         0.34768724381488    6.03086810417117    7.38250163730849
C         3.51404201251584    9.03340971323103    6.86469083418319
H         4.43273696228478    9.01662269420705    7.43605659423053
C         1.17791977165194    9.02345242152809    5.39485988206118
H         0.26105535707500    9.01927895228219    4.81978838751554
C         1.55763308660216   10.16727653529635    6.07893879141734
H         0.93719704846976   11.05234882952464    6.03693564731056
C         2.55175279351559    6.80260809961962   10.41253597056069
H         3.17280378531524    7.03131018105559   11.26939889393699
C         3.12588359976099    6.12132336922185    9.33026152555617
C         1.96136708806449    7.88597239981410    5.44759988167743
H         1.65267019509033    7.00088589707382    4.90793657250761
C         0.42203998978674    6.90167203638000    9.32958279838860
H        -0.61890378682381    7.19471858293182    9.32167046747036
C         3.14098850788948    7.87995432804113    6.18638962357103
C         2.30198669140665    5.86061927961662    8.22191246517329
C         5.10510392357345    4.52539841295362    8.86488989597080
H         5.84831110560283    4.06378607115503    9.51815637804540
C         4.53184897127695    5.74816639524737    9.41483230117409
H         4.90584151068999    5.96028002872399   10.42092327816461
C         2.86551309874410    5.24358094249046    6.98058240747517
H         2.09364020495146    5.23623697950182    6.19971596564772
C         2.80640902871871    2.84049618864950    6.39702549389641
H         1.98767469389938    3.08221579398659    5.72952643046819
C         3.37262269816668    3.85187508746008    7.15708120832758
C         1.22981382168566    7.19277191277090   10.41585900701808
H         0.82347966562484    7.72072923121143   11.26906633576398
C         4.86856654973446    4.67066313689831    2.20656065230617
H         5.02498035222185    4.23139551124579    1.23065717916152
C         4.32553219707620    5.93990344741152    2.31718756379089
H         4.06983739430444    6.49711610655645    1.42576267562095
C         3.26569832842379    1.53621656695816    6.45495070033985
H         2.80389840999463    0.76602842566235    5.85276360381694
C         4.33749232833650    1.23932557415124    7.28555561703178
H         4.72133813300204    0.22801137402471    7.33420494273577
C         5.23031439783572    3.97763522972988    3.35018655615474
H         5.67813646421768    2.99649962951721    3.27183451302450
P         7.65331134426935    6.25685351493108    6.41600786461476
C         7.45452313117198    6.88048700613467    4.71572245348143
C         7.77566880794374    6.17465613687565    3.56152861572667
H         8.18227039971291    5.17583335201490    3.63373076778698
C         7.56295695969639    6.73907820747346    2.31719795497302
C         7.01992338297168    8.00831827651461    2.20656534934636
H         6.86350447781898    8.44757995266867    1.23065971295282
C         6.65817819273387    8.70135133428358    3.35018863129184
C         6.86080397386291    8.13697240790284    4.59383269314939
H         6.55227766310390    8.66314519656861    5.48584796411685
H         6.21035346241921    9.68248550879605    3.27183191527207
H         7.81864705874106    6.18186062614853    1.42577458996594
C         8.74752108472677    4.79905340677134    6.18639817013309
C         8.37448208589120    3.64560189964474    6.86471437918302
C         9.15831940810562    2.50777939147999    6.81431843420100
H         8.85678023954101    1.61753307538548    7.34854257976768
C        10.33088961009803    2.51173858524562    6.07895499999115
C        10.71058785318038    3.65555749701820    5.39485883580055
H        11.62745953115833    3.65973930565737    4.81979895636988
C         9.92713445408357    4.79303353537721    5.44759543628050
H        10.23583026232657    5.67812247242148    4.90793562980174
H        10.95133510567947    1.62667227127037    6.03696238125256
H         7.45577910467488    3.66237828070307    7.43606715783828
C         9.02300311646791    7.43543203465304    6.98057533073684
C         9.58652245615131    6.81838779476408    8.22190352426591
C        10.91810265309098    6.43588852413380    8.24279148112881
H        11.54082471671207    6.64815120258437    7.38249901925052
C        11.46646743257229    5.77733249195698    9.32957287782397
H        12.50741400450068    5.48429557083578    9.32166483308705
C        10.65869070184836    5.48622618753337   10.41584506742811
C         9.33674868748643    5.87638224651254   10.41251753890587
H         8.71569736955516    5.64767433194178   11.26937875497775
C         8.76261640238405    6.55766674269037    9.33024183787690
C         7.35664333457216    6.93080877448154    9.41480006514334
C         6.78339210786586    8.15358763201470    8.86488153509696
C         7.44627937264127    9.12043353201892    8.03299573324540
C         6.98287653210537   10.45139252352367    8.05353281521823
H         6.15055869282387   10.69487094446772    8.70237616025966
C         7.55099399747829   11.43967469284906    7.28557700797464
C         8.62278617085817   11.14279308018852    6.45496650644621
C         9.08208558586603    9.83851730144746    6.39703529453933
H         9.90081692743711    9.59680507729346    5.72953046699377
C         8.51588065444966    8.82713139748990    7.15708580747485
H         9.79487655993983    7.44278067754196    6.19970966008082
H         9.08458147758443   11.91298653768996    5.85278318778016
H         7.16714209443219   12.45098621204583    7.33423240325037
H         6.04019254343435    8.61519668991509    9.51815958704292
H         6.98265492511043    6.71869198891729   10.42089243846769
H        11.06502565084610    4.95826812936981   11.26905189296515

