108
CSD_code = JOGGIW | q = 0 | S = 0 | Stoichiometry = C45H53BFeN7P | MND = 4
Fe        4.69109001145692    9.91466536002596   -9.66655838080586
N         4.27755224356937   11.60582087039008  -10.26467532211260
P         4.35600956106943   12.77296429327971  -11.27851703130963
B         4.50806650465567    7.61755050764960   -7.37373832331103
N         3.83825728016163    8.89297773326415   -6.82985005110551
N         3.08423117972311   10.90309656237557   -6.70711536861604
C         3.62440675459640   10.00270228641884   -7.57434523941262
C         3.50357425545819    9.11601284388454   -5.52714484427452
H         3.65090018779880    8.38864309024675   -4.75606117748224
C         3.02063807697409   10.37523216340914   -5.44351232067652
H         2.65429615031560   10.90477944970799   -4.59055967455771
C         2.65606221119378   12.25552158600117   -7.04621407285105
C         1.85404290609422   12.89320258740406   -5.90820061982610
H         1.00903289301274   12.26879453132432   -5.62510963015594
H         1.46876116836970   13.85087868816736   -6.25055117881212
H         2.47437684629895   13.07737417305462   -5.03381345040178
C         3.90736191739011   13.09060509675220   -7.31739718073966
H         4.44017659018995   12.65169390225855   -8.15661422381398
H         4.55870196828009   13.09235234047146   -6.44543723809804
H         3.64029286187118   14.11564821402166   -7.55986135386038
C         1.77427867813403   12.17900560511047   -8.29097183920185
H         0.86123030175199   11.62762290506644   -8.07610293906840
H         2.33005822193456   11.66137250518133   -9.06707372401338
H         1.51668818901211   13.17755829598201   -8.63514602188254
N         3.87508185242474    7.27058943098654   -8.73053981672223
N         3.40035229675568    7.38321158147479  -10.83612088095843
C         3.99732810252751    8.06090026562880   -9.80894703984593
C         3.20025453467118    6.13087094564768   -9.05428433428798
H         2.98633115629497    5.36308205370441   -8.33987318624357
C         2.89915808516137    6.19334642539406  -10.37024084092270
H         2.37717451933119    5.48833914497028  -10.98096468562956
C         3.33343173781152    7.85782994380661  -12.21227466005708
C         2.69218366295163    6.81910977680496  -13.13408484587919
H         1.66324244496813    6.61909577064949  -12.84490467103573
H         3.25430565673063    5.88787352651699  -13.12803685340847
H         2.68612851925393    7.20540480658346  -14.15056162605402
C         2.50583743848362    9.14328955803481  -12.22740250963096
H         2.96135556791155    9.86204439551128  -11.53999272608008
H         1.48986494490655    8.94454079507782  -11.89478210957449
H         2.46840673284491    9.57401014040950  -13.22493553965068
C         4.76289259565728    8.13950927445604  -12.68110395078983
H         5.20960640434251    8.89088505333343  -12.02810615338984
H         4.76697579288967    8.50571377525995  -13.70407704786878
H         5.36381984128228    7.23416130661406  -12.63023812413060
N         5.94331405878006    8.08856959365438   -7.68582624455284
N         7.48492864266967    9.26744183275735   -8.64087864865784
C         6.15013719659342    8.97411524161053   -8.67671885854568
C         7.09859007692333    7.87646717366035   -6.99576825630415
H         7.14960145742752    7.25048746579517   -6.12904964588535
C         8.07085440225794    8.60493285179584   -7.58979846008190
H         9.10724991516691    8.68818208625762   -7.34075803421221
C         8.15603137387231   10.23836046389127   -9.49491213571564
C         7.63521671050414   10.08608945347456  -10.92376448068087
H         7.77827121263650    9.06812234645212  -11.27782276793080
H         8.15080982275709   10.76929804046699  -11.59338547771183
H         6.56662572259071   10.32863900345073  -10.94908376059587
C         7.81716230138304   11.63542888682968   -8.96841717412052
H         6.73100570257830   11.74877033514086   -8.96219041173327
H         8.26030436138523   12.39749821590525   -9.60511807549664
H         8.18536203338860   11.76375306080461   -7.95261188027053
C         9.67144307470813   10.01907310254095   -9.48993419197411
H         9.91186256058235    8.98607422502992   -9.73186529035367
H        10.10795566870965   10.27000880485296   -8.52644303177289
H        10.12720772444004   10.66151268050178  -10.23929137947872
C         4.39195544882623    6.30886857978341   -6.43936353437198
C         3.23970859710649    6.04207470175055   -5.69826693683972
H         2.42360200070545    6.75074811350942   -5.71607834729585
C         3.09500712535403    4.88055490052359   -4.96009679668923
H         2.19039458020430    4.71258326201345   -4.39140026522810
C         4.10013591289838    3.92931655073114   -4.95633340814576
H         3.99466987268385    3.02326614473436   -4.37635489853607
C         5.22959506154361    4.14150416084317   -5.72655587485082
H         6.00794655746703    3.39116027366807   -5.76174058107761
C         5.36202113120576    5.30728482862656   -6.46107680169663
H         6.23571861913697    5.42810057219649   -7.08575757984009
C         2.92174582586643   12.95345266820915  -12.40361845920705
C         1.70547784029122   12.37958256306939  -12.06350514301191
H         1.63036160810591   11.82337736333270  -11.14115949127034
C         0.61065245430417   12.52378469928681  -12.89663469697111
H        -0.33444067218238   12.07390576940934  -12.62854577685035
C         0.72621607465526   13.24750104478536  -14.07246870804562
H        -0.12758643488474   13.36085638209468  -14.72483318356092
C         1.93692560668892   13.83202888960244  -14.41013953289044
H         2.02480043172140   14.40311596667964  -15.32358647763738
C         3.03217382849295   13.68894204456451  -13.57874140242894
H         3.97652250496744   14.14980493773480  -13.83446066316007
C         4.47919583845199   14.43629477797785  -10.49685792208449
C         5.56738371349777   14.71570214275956   -9.67540891183957
H         6.35672222219072   13.98429747389580   -9.57884748526436
C         5.63922235178235   15.90965682417158   -8.98348557624531
H         6.49493947361701   16.12075909189000   -8.35794780584028
C         4.61064593241378   16.83263377754986   -9.08670614684297
H         4.66327991068319   17.76619760681858   -8.54555421229779
C         3.50974416585253   16.54934211182639   -9.87787172583798
H         2.69984295408493   17.26159182620341   -9.95106495784753
C         3.44083024300031   15.35655711725252  -10.57563937587715
H         2.57903657035797   15.14259204816576  -11.19249260473302
C         5.74707151331847   12.76326454732648  -12.50747990149444
C         6.84985185626395   13.60849180520166  -12.50423175629044
H         6.87339085194000   14.46591862283869  -11.84689740558553
C         7.90518556547612   13.37539029681156  -13.37047391064380
H         8.75828573756761   14.03990535994891  -13.36627704480214
C         7.87173263975475   12.30204185315539  -14.24457839218651
H         8.69815410935160   12.12614763927512  -14.91784987646836
C         6.77180492716382   11.45574378049260  -14.25682261402543
H         6.73831535482708   10.62312389230284  -14.94520953805052
C         5.72640527558262   11.68203449935087  -13.38555725286748
H         4.85850195179085   11.03359006022953  -13.37724600883361

