113
CSD_code = JOGKIB | q = 0 | S = 0 | Stoichiometry = C51H57NP3Rh | MND = 6
Rh        4.02621494277541    6.15001186669605    9.71099249352326
P         3.50574752113854    6.68820320949175   11.85909192536643
P         5.00708433635520    5.56684584601898    7.74920546989695
P         2.11148569624873    7.11950514895006    8.75975239552540
N         9.49566159560995   13.04531569276045   10.47369380179870
C         5.05032072186143    7.91512976233347    9.66200913853180
C         3.21111585152154    4.25526196214092    9.91884554011518
C         4.04484320365408    3.35665956784911   10.53679152107366
C         5.34235446787779    3.86654001018434   10.92348519331888
C         5.59526635749320    5.16422096020698   10.58254712315542
C         1.97713204984053    3.83267832810148    9.43874106640668
C         0.89320717763004    3.50982364244773    8.98712650907596
C        -0.33345742457755    3.00811192119701    8.51685978160770
C        -1.33485618130872    3.85012904231519    8.02208546720217
H        -1.17056640235921    4.91856383973986    7.99507850989446
C        -2.52891245098547    3.32223604812278    7.57350632054847
H        -3.29719556402978    3.98149715847724    7.19362692218582
C        -2.74746516629809    1.95414331942303    7.60748577437806
H        -3.68344574729473    1.54625287397285    7.25479546047460
C        -1.76042267113156    1.11100184807109    8.09657499787457
H        -1.92949413973845    0.04376358452052    8.12461743879377
C        -0.56381353189471    1.62682377937899    8.54832002534062
H         0.21038624213569    0.97711560071875    8.93222648045007
C         3.69703791643959    1.93842089822310   10.70506675769597
C         2.47317082175797    1.55799161246231   11.25134456964843
H         1.78275788737943    2.31739439605539   11.59057875866689
C         2.14072074349338    0.22209223967102   11.37323427267930
H         1.18812491119343   -0.05675124422081   11.80223305310516
C         3.02377426650135   -0.75761176560256   10.95156789137833
H         2.76350182395923   -1.80193104103461   11.04772890691181
C         4.24330517288610   -0.39115598685334   10.40657542941206
H         4.93664814901004   -1.15085818857318   10.07389581933303
C         4.57786398714422    0.94333414192736   10.28401668344226
H         5.52813716288705    1.22171195737937    9.84945310258986
C         6.29612021063695    3.05152850241526   11.68874914134321
C         5.85656102219434    2.31188896427988   12.78635307226168
H         4.81182433273111    2.33635169662910   13.06335268395995
C         6.74375965874692    1.55735985578546   13.52868982198572
H         6.38605054698050    0.98935440753762   14.37591544399170
C         8.08676531382160    1.52809113401356   13.19139147195002
H         8.77939294362114    0.93418310420338   13.77000497854899
C         8.53611994673124    2.26632891604536   12.10958683048555
H         9.58321008605650    2.25044316783859   11.84182603014754
C         7.65069635256501    3.02275601174847   11.36526777839212
H         8.00866177755339    3.59238055845040   10.51995293164550
C         6.77940517736884    5.83800575940659   10.84506491625290
C         7.76790899356775    6.53100431205764   10.99563769196691
C         8.88564588269444    7.37039927425213   11.14758143606763
C         9.53264257223157    7.49157477521865   12.37980917437301
H         9.17986013955373    6.91133179927812   13.22118542031752
C        10.60576703778818    8.34915537991416   12.51726359476347
H        11.09989922041440    8.44104800668305   13.47464026043866
C        11.05192245657811    9.09187282440928   11.43555780208531
H        11.89468616933517    9.75861358742882   11.54873367799548
C        10.41723149867059    8.97411751538073   10.20888093475922
H        10.76024974309608    9.55539577709939    9.36478316798467
C         9.34404758696883    8.12068354052160   10.06009598408545
H         8.84063892627059    8.03140776890453    9.10834238413027
C         2.22506405727509    5.69469582121780   12.72326996577306
H         2.02162597179881    6.11145434466462   13.70946344926238
H         2.60473813684707    4.67911164203258   12.82922133493564
H         1.30811980645036    5.65873259115035   12.13935545392387
C         4.83088853472553    6.61223609696082   13.11995251517619
H         4.44570823295645    6.97880091574396   14.07198751443534
H         5.66135451210109    7.23367506163186   12.78933738260847
H         5.18583181677229    5.59011518383581   13.23851932395512
C         2.95596377290712    8.40898217260289   12.18663800005972
H         2.75222862935223    8.54259695937580   13.24888745388779
H         2.06794954503211    8.66047991559333   11.61271998190478
H         3.76674351155769    9.06853277680860   11.87855140033132
C         4.27719378765561    4.20650307070240    6.75447290219444
H         4.83617680324405    4.07676104861202    5.82794168020073
H         3.23285608094569    4.40617900816037    6.53047903411005
H         4.32851874728577    3.29103094805845    7.34312797895492
C         6.74099461136125    4.98035684010269    7.78719746083584
H         7.10102054548142    4.83441662561818    6.76833530179602
H         6.79616788126508    4.03907182162377    8.33126110105263
H         7.35614455093810    5.71903255602701    8.29839910507481
C         5.20920498534260    6.90475757532327    6.50924840209085
H         5.67845521261560    6.52003852795515    5.60406193332682
H         5.84112859377245    7.66755082260536    6.96297895973348
H         4.25164445373326    7.35670314628651    6.26229951821203
C         0.51482940881888    7.02863675089664    9.67077975503206
H        -0.26788290543260    7.53050889061831    9.10176722322391
H         0.59748348515480    7.49319039796281   10.65021572789725
H         0.25765000464656    5.97820941306425    9.79990196523715
C         1.46932578858723    6.52106280090086    7.14249862739632
H         0.58458342614465    7.09269529221737    6.86170384556710
H         1.20652822962160    5.46930684863728    7.24382393088514
H         2.22222894199098    6.62636074751693    6.36490758098110
C         2.18410010451080    8.92067070528732    8.40474855429792
H         1.23794009044692    9.27633999005201    7.99749177521797
H         2.98754252371709    9.10526905913288    7.69397734363383
H         2.42414287958567    9.46015694136060    9.31837798161376
C         5.77371722532191    8.88159280945444    9.77637581622828
C         6.67462109551510    9.96218986818817    9.93053340657825
C         7.16188670727445   10.29088081809938   11.19817174706084
H         6.80367142897084    9.74304175323465   12.05977715166937
C         8.09009334300881   11.29211841670035   11.36196448611265
H         8.43000087344644   11.53204612927794   12.35893224575799
C         8.58671490878112   12.00719269353773   10.26615051229772
C         8.08083566985205   11.69221068359715    9.00328719025737
H         8.43146318648874   12.21590741003190    8.12668187784224
C         7.14260068901739   10.69273985657613    8.84076071863829
H         6.77639495540866   10.46109533477968    7.84858514629958
C        10.64188694365656   12.80887959153051   11.32099937642152
H        10.43224463410093   12.02201462953014   12.03866190284705
H        10.89226546284514   13.72486819861100   11.86238650576511
H        11.51937043827445   12.50822676271809   10.73014913871231
C         9.79243122572333   13.93959498705543    9.38299980604350
H        10.44545642922079   13.49152740980102    8.61877926164602
H        10.29975883267026   14.81626022856079    9.78904917996453
H         8.86668986828583   14.26774042810769    8.91313182382519

