75
CSD_code = JOGMIC | q = 0 | S = 0 | Stoichiometry = C34H29BClN8PRu | MND = 7
Ru       15.44099937484942    7.99164609913776    4.35380885725272
Cl       17.42623992624202    7.23415570594312    3.25719024356595
P        18.83069788852275   11.06713604203072    4.13272724576991
N        13.74794388134692    8.57151579613414    5.25091052503364
N        12.80299331376067    7.67672925287830    5.53391475723723
N        15.45614070747932    6.38221471412016    5.58297575803616
N        14.31418473321207    5.75238424503549    5.86378113305455
N        14.34069103774551    6.82438051718268    3.16375078357625
N        13.31367650077621    6.13719413760413    3.67063327769621
N        15.33691963571985    9.55780096244298    2.96768310147985
N        16.62613011272433    8.85540174859245    6.05766186831014
C        13.32857729193888    9.75791010494584    5.66287847825154
C        12.06175814855897    9.62905125700196    6.23616829173691
C        11.76733621041759    8.28709783466779    6.13302032235406
C        16.43215995179347    5.78658223394897    6.24492926774244
C        15.90792390068183    4.72516036959513    6.98515893487114
C        14.55787108481042    4.74027812766029    6.71143342704815
C        14.46466788077298    6.49761396468484    1.88505103761004
C        13.47874575523194    5.56910623837084    1.54690758966333
C        12.77342447101096    5.36614248452566    2.71249162459225
C        16.83865241432189    9.45417402974803    5.06658673315967
C        17.24510542313533   10.35504111634761    4.07297335921599
C        16.37990119117881   10.42785559446886    2.94445671547174
C        16.54190978133139   11.35374292883211    1.90349611040311
C        15.60640674329196   11.41590905207970    0.89986727226269
C        14.50398307040381   10.56550792801272    0.96591297309991
C        14.41820578963598    9.66467236916413    2.00802909997292
C        19.86054523496793   10.71774874518001    2.68317234330265
C        19.51344389966093    9.67388968574770    1.83290927205828
C        20.34606800192670    9.36280938058556    0.77175148392766
C        21.51643193680166   10.07542145016003    0.56892534383414
C        21.87745165224139   11.09071792658629    1.44231041193582
C        21.05642743118603   11.40991756768686    2.50699174216949
C        19.72504249404339   10.31742463663095    5.50637012593111
C        19.75779459585835    8.92387958388189    5.52128099585800
C        20.45016336250102    8.27648780402692    6.52712633417817
C        21.11773306038251    9.00848130304892    7.49690937208377
C        21.10628888896739   10.39323092646660    7.45910312982668
C        20.41366985310279   11.05540762024824    6.46092708878866
C        18.72278521300013   12.86516628061524    4.38676194026933
C        19.03322569429168   13.81027274488458    3.41586322938501
C        18.79684314227161   15.15136496822692    3.66409160514838
C        18.24475330162231   15.55229108114271    4.86929373309099
C        17.90800955077098   14.60860235924832    5.82900083961896
C        18.13326656662430   13.26839184012881    5.58471802722698
B        13.01607964769269    6.19835748252543    5.17875156923970
H        12.09027860518658    5.52913048217657    5.47792522955610
H        13.93428194630640   10.63723569329248    5.53866527956076
H        11.45674581180577   10.40310027113093    6.66157503493073
H        10.90153776057490    7.73782854538376    6.44208378525137
H        17.44518263814025    6.13352519337390    6.16519276301921
H        16.43984460157808    4.04855929436562    7.62198130855270
H        13.76812499482491    4.10424985644599    7.05745295244162
H        15.23996614412350    6.92041061261203    1.27294920711418
H        13.31532739071386    5.11327034025590    0.59229202119052
H        11.93677467379492    4.73033318091058    2.91957897924127
H        17.40188587048248   12.01037548605924    1.92545387332224
H        15.71200426545099   12.11909533346286    0.08722844014724
H        13.72800322723471   10.60034512824377    0.21871860443804
H        13.56573371239738    9.00037931587281    2.07789832759474
H        18.62361184227439    9.08666833713703    2.02103885630779
H        20.08098746639322    8.55290546858935    0.10982374735919
H        22.16138571039991    9.83056244656708   -0.26207341080458
H        22.80384577748373   11.62711941853159    1.29733711552197
H        21.34167611810064   12.18303856406374    3.20858185104384
H        19.23875584076601    8.35726998755986    4.75681468107672
H        20.47038083440314    7.19771698428606    6.55275535163007
H        21.65445529364179    8.49857458886533    8.28320981734164
H        21.63665419924689   10.96058472409267    8.20980869151500
H        20.40377050863676   12.13644726602937    6.42827898933073
H        19.46032417313731   13.50087851081402    2.47209896617540
H        19.04154877353612   15.88576270177011    2.91099958875348
H        18.06545216232242   16.60010063370267    5.05755897684444
H        17.46376882351249   14.92035642049870    6.76246560021650
H        17.85432108455123   12.51580697198385    6.31214799508060

