82
CSD_code = JOGPAW | q = 0 | S = 0 | Stoichiometry = C34H43CoN2O2 | MND = 4
Co        1.80325993384796    3.06642572278102   -0.55170966919784
O         2.82855222916206    2.22604825775153    0.66419444775738
O         0.41109425041138    3.32009866347517   -1.70294250449448
N         3.38667269934410    3.57847308425626   -1.61393645182624
N         1.27295484718614    4.79041637303977    0.47800571783765
C         4.08612634042487    2.14348505100961    0.85011357189076
C         4.59950681098944    1.38993949403230    1.93963633534309
C         5.93886678174601    1.33829850092928    2.20165579523208
C         6.85810849152741    2.01901161104534    1.38667290446986
C         6.40994915953181    2.72720118719250    0.30803650056583
C         5.03442893589775    2.80667479633297   -0.00042854464440
C         4.61098366210271    3.48071460102392   -1.15978991440726
C         3.04656216186764    4.31022600528283   -2.69509252254737
C         3.44737232668152    5.76465184566117   -2.63595629959502
C         3.25660165666648    6.51606743523960   -3.94685557631043
C         3.44695137094135    8.01537995792518   -3.74129133529792
C         1.86268624001926    6.18430017211939   -4.46083730375295
C         1.79057651667480    4.71190724913688   -4.83947201241128
C         2.30426814814785    3.76906998595707   -3.77256558127517
C         2.04640876729669    2.42729649084165   -3.93158652788873
C         2.49271447403680    1.37856972493173   -2.97833536601470
C         1.25461454184530    1.95322231921930   -5.11262366883003
C        -0.31059053613080    4.33931728297291   -1.97665792530760
C        -1.24504137697121    4.26859110342338   -3.04214566588638
C        -1.97866694080762    5.35635860088992   -3.42869976038514
C        -1.84516905545512    6.58024090459769   -2.76461027223623
C        -0.99746822353532    6.67042856833614   -1.69164069339312
C        -0.23124275944066    5.57334801236387   -1.26221515352471
C         0.53210561024316    5.69002823429559   -0.06763042261985
C         1.85596317696746    5.12733973433266    1.76244783050459
C         3.31696069510950    5.52679560762482    1.47489124061630
C         4.13928385332792    5.85212116019310    2.71472843966130
C         5.58080326109326    6.16374285760034    2.32259555710374
C         4.06946337214805    4.66131723146342    3.66141532632348
C         2.61586827980050    4.37034713468291    4.02057320341642
C         1.75590336184854    4.04381161353738    2.82218513315826
C         0.91697518601377    3.00407016544100    2.81886534801550
C        -0.14953950664669    2.75028616512257    1.78788005456991
C         0.93695633495547    1.95770383566726    3.90666196001009
H         3.88356797848471    0.87664108154588    2.56357778234602
H         6.30087569801887    0.77332861322279    3.04870197877114
H         7.91219072361659    1.97269425347505    1.61400478190885
H         7.11000067988224    3.24378436424580   -0.33496255734040
H         5.40765094694162    3.87243708370217   -1.79460833971536
H         4.49055165734827    5.83072328251817   -2.30790761578797
H         2.84356974186891    6.24981389019256   -1.85941640359984
H         3.99502402598921    6.16221624907684   -4.67568940436626
H         3.34702338234821    8.54516517501435   -4.68583823838229
H         2.69739894287102    8.39977536324675   -3.05256847903206
H         4.43282190193616    8.22670668603398   -3.33210931520828
H         1.61839463832877    6.79408283261923   -5.33317241594555
H         1.12868692390550    6.40061199504415   -3.68230887775274
H         2.36691084369178    4.54972120285302   -5.75747424460536
H         0.75107960724208    4.46397643365375   -5.05952973631318
H         2.05134549127799    1.56273694684677   -1.97071298283460
H         2.18144941491426    0.38932521606982   -3.30518652379784
H         3.57363527082048    1.37933345038124   -2.84414035014586
H         1.20016149764706    0.86836580510787   -5.13761541969860
H         0.23638627808849    2.34254697794201   -5.08227961597657
H         1.70203376082857    2.29503222687976   -6.04648229048003
H        -1.34942258346942    3.31792774501962   -3.54376915885197
H        -2.66935555803126    5.27302586185110   -4.25613608756693
H        -2.42044031307308    7.43538359343891   -3.08474978567931
H        -0.91115258730384    7.60259520782462   -1.14846645670294
H         0.40100294052097    6.64476317085744    0.45862065088532
H         1.34359711515484    6.02158816980711    2.17041316762143
H         3.30200994158642    6.38808523270470    0.79989051254228
H         3.79298698188337    4.70116433957464    0.95045070706460
H         3.71007068389962    6.72908998364982    3.21533999498328
H         6.16994086272334    6.41122209094029    3.20286804662215
H         6.03194476166582    5.29952826775069    1.83882935523713
H         5.62021411448017    7.00568872288677    1.63456866772339
H         4.63700766106571    4.86957904706328    4.57160084899537
H         4.50992256004943    3.78681203582266    3.17890914102320
H         2.19210700718059    5.26462847360369    4.49427383934766
H         2.57841826324258    3.57213892161609    4.75675285735210
H         0.27361247849204    2.28181716377270    0.88661823306953
H        -0.90105924742214    2.07303537286351    2.18987674177907
H        -0.64729204906517    3.66949594432974    1.48975038738950
H         0.49140105021076    1.03652641600324    3.53900975705696
H         1.94764267835064    1.72808288735417    4.23308200902495
H         0.36235875292484    2.28687547985226    4.77364864441444

