42
CSD_code = JOGPIG | q = 0 | S = 0 | Stoichiometry = C19H17N3NiO2 | MND = 4
Ni       -0.37040129811404    5.98218154425751   14.15744253104649
O        -0.08618894830881    7.36923806137036   15.30119001899823
C        -1.04539260962542    3.52945357847587   15.75503181747424
H        -0.77904838429821    2.90774878526000   14.92367235335450
O        -0.64977449134608    4.57415009284431   13.05621550188014
N        -0.97891076522848    4.89035328522881   15.67721750069543
N         0.20306765479527    7.13622669303110   12.77005739521402
N        -1.67648909188429    4.34227707675310   17.67587024979302
H        -1.99419982877484    4.42783000115463   18.62776145395654
C         0.71600511326588    8.32231187808689   13.32107068966136
C        -0.35731208272682    2.87295395796085    9.92546700270137
H         0.33810644660005    3.53004324527311    9.42550993485750
C         0.46400596290745    8.40700005699009   14.71452935063279
C        -1.78612083570787    2.37384622663981   11.78853195793874
H        -2.22232600140929    2.67385099624874   12.73002910777120
C        -1.36344781909752    5.35316647174656   16.84638889557686
H        -1.40730411919006    6.39223405822496   17.10814579765055
C        -0.03796942666799    8.05531421204524   10.47407867154233
H        -0.28397965483440    9.00544187196922   10.94227158730783
H        -0.77333926856823    7.84094487750579    9.70109381108997
H         0.93528129127506    8.13753581057499    9.99192094471254
C        -0.61757153199630    4.55912690732779   11.77575928202497
C         0.83013260115770    9.56086489309483   15.41380598788866
H         0.60409920984364    9.62895205606970   16.46725338241439
C        -0.92334995414251    3.25502300088299   11.13908300183460
C        -0.04759011441245    6.93961008384123   11.48676985980919
C         1.87106179555092   10.42289525362454   13.42663250209123
H         2.46260535565668   11.18606226535127   12.94279542053542
C        -1.47949562788833    3.17503414744678   16.99659541584291
H        -1.65641610536557    2.21581042779388   17.43640052061524
C        -0.38684253337026    5.67190890543835   10.98164365779710
H        -0.51840991680494    5.57980146503520    9.91598375273548
C         1.52102243054794   10.56146885452468   14.76209029096467
H         1.82197371203327   11.44509905011935   15.30647801895712
C         1.47872235494108    9.30973009593452   12.70375894637568
H         1.81952632052835    9.20788387669223   11.68710078737871
C        -2.09124436822020    1.14812346270988   11.22931217553247
H        -2.76776128403594    0.47662278221433   11.73838803491671
C        -1.53037030224658    0.77960127698510   10.01743775493032
H        -1.76609163415274   -0.17933231389402    9.57958399164741
C        -0.66100076309168    1.64320863451106    9.37125037692027
H        -0.21386148759448    1.35370209265499    8.43118026493180

