42
CSD_code = JOGRED | q = 0 | S = 0 | Stoichiometry = C14H16CoN5O6 | MND = 7
C        -1.76177024255872    4.63372148829887    8.05490623845111
C        -2.65304318813863    5.50614355588769    8.64937740041566
C        -2.33560212593325    6.85383356680885    8.70396846671727
C        -1.12480028394895    7.25753075954798    8.17546977774682
C        -0.27135984529162    6.32317006507834    7.59624360084948
C         1.05319329633059    6.73967973747242    7.05292848044146
C         2.13073319852198    5.70328350589743    7.37367777507749
C         3.18825016665340    3.76808698074205    6.44874986543945
C         3.21079887429257    2.95222300138943    5.15715868457684
C         2.23765649776052    1.82163317892520    5.19310734162437
C         2.56733550074755    0.60459147932823    4.60228233987931
C         1.67517228053777   -0.44889451601264    4.63813729944575
C         0.46551921409408   -0.25296864312022    5.28449111075576
C         0.20202470927199    0.98057650731988    5.84806394950100
Co        0.39929118771865    3.63346511346950    6.63244480909868
H        -1.99692451245869    3.57948617931001    8.00117482866599
H        -3.57542079625728    5.12698767030791    9.05747075039693
H        -3.00887494064031    7.56714354282334    9.15421522521662
H        -0.82630226670267    8.29384549884120    8.20509462347048
H         3.52637370595775    0.49947208640376    4.11931371661178
H         1.91784620247225   -1.39695914863158    4.18302161447928
H        -0.26914849958939   -1.03779543579380    5.35767376627917
H        -0.73559792776359    1.14387293684068    6.36106485369359
H         0.98236412299271    6.79941654214959    5.96379652797156
H         2.07642400136941    5.39533137345561    8.43120535066590
H         3.25782066596994    3.11043372925914    7.32975661498827
H         4.21154637868930    2.56717254893215    4.96042959787716
H         1.32304603947199    7.71880539684245    7.44823147565744
H         3.10923043639814    6.17429960949393    7.22112462249605
H         4.07420276115435    4.41391410641124    6.45653112460773
H         2.92376972333618    3.62711637850271    4.34642884328996
N        -0.59836979673477    5.03016204251712    7.52782634836402
N         2.02038724422654    4.60330612257960    6.45840975082220
N         1.06209707691963    2.00459640597614    5.80079403762044
N         0.32468802603836    2.19205225556226    8.99424136191713
N        -1.31487823297532    3.82075285777212    4.75543563349002
O        -0.73506327116634    1.84979900839970    8.50338183920594
O         1.03528422836673    3.02302520577389    8.32652769337457
O         0.74446583101885    1.80682871982850   10.05184132689473
O        -0.16165206566678    4.31753355318508    4.90619772397306
O        -1.70198126820981    3.10490135495950    5.68156014218313
O        -1.96093210627517    4.05072367726434    3.77324346576668

