44
CSD_code = JOGRAZ | q = 0 | S = 0 | Stoichiometry = C14H17CdN5O7 | MND = 7
C         2.38069608319756    2.33161289173667    9.19037186636687
H         1.44236636058044    2.86848451080037    9.10758169991472
C         2.52482972052178    1.27510197820872   10.07334931372369
H         1.69948395390128    0.97281991944585   10.69724971154197
C         3.74308770108058    0.61636263853662   10.12166327206294
H         3.89166286736750   -0.22626427998732   10.78038282522601
C         4.77216647445161    1.06768598899870    9.31415354015857
H         5.73840442317557    0.58745868367897    9.33857873549820
C         4.55663139631453    2.14999175318935    8.46498954574962
C         5.68184181393342    2.70284996357461    7.63856129103585
H         6.60077406829505    2.18108769325052    7.90807999493098
H         5.81101849131693    3.76248972336956    7.87837481548105
C         5.47990586074895    2.57993410045337    6.12120592707069
H         6.46775296245098    2.56123254608346    5.63882693107547
H         4.94277587722986    1.66102250617984    5.88062789501561
C         4.55950043892538    3.55552663818769    4.13228831375425
H         5.55753277740340    3.53081431686121    3.67171454213464
H         4.05142599719979    2.60814387962448    3.94451668557261
C         3.76786646408983    4.72024188603414    3.51910814542102
H         4.09080440165243    4.85254196042518    2.48590671646134
H         4.01929922892472    5.63029404906590    4.07187509400255
C         2.27780382751597    4.53600827034024    3.53629470338369
C         1.56428313683685    4.44512076558427    2.34402327392237
H         2.08924246827292    4.45390824935048    1.40106030285547
C         0.18457434458568    4.34477519264768    2.37884673233453
H        -0.38315643012997    4.26644344731841    1.46361773933684
C        -0.45034998936786    4.35714977865354    3.61061847218559
H        -1.52395842122176    4.30012252774455    3.68791097619980
C         0.32787737815738    4.43214620231054    4.75325849608089
H        -0.12270229208951    4.43143116892923    5.73947284912686
Cd        2.57148397419820    3.74555120802250    6.58476746902112
N         3.36570959286167    2.75032383993643    8.39632738743391
N         4.70820054766333    3.70221326130902    5.58220174155884
N         1.65784874176863    4.50602326361130    4.71857496946196
N         2.20965289671077    5.99388685107644    7.80217529252419
N         1.43226171463103    1.41516444197415    6.00920160568185
O         3.28269942638472    5.77099574116209    7.19857937384504
O         1.35197547421177    5.10268652126028    7.79468950991408
O         2.03224907157680    7.03852622437717    8.36346513237884
O         0.85624784548857    2.27574861590728    6.68821434753601
O         2.57707790549156    1.68336606272931    5.59001986502257
O         0.91609135390113    0.35824125208524    5.75941705582122
O         5.49014960994914    4.88054416803164    5.79923114609401
H         4.93581045984025    5.47608959791916    6.33172469608046

