46
CSD_code = JOGSED | q = 0 | S = 0 | Stoichiometry = C15H25Cl3NiP2 | MND = 4
Ni        2.58334206889122    3.31648196818554    0.31893815941027
Cl        2.77639188503409    2.55864262729236    2.29042988517324
Cl        0.07620695092101    3.67260604601746   -0.17916415659126
Cl        0.06185852471853    4.71797448799435   -2.88818605194468
P         2.70317046130511    1.28294869966899   -0.39922562805346
P         2.96056913691418    5.28826375283112    1.11916907512783
C         2.34396973771344    3.99403884538297   -1.43070850258957
C         1.03300581052177    4.13808485981837   -1.56774689557241
C         2.55550945086613    0.88109664467846   -2.18360244465607
C         4.25132838594986    0.41007403052836    0.03432660820213
C         1.43897226174139    0.16866573225591    0.31007322668121
C         2.96406115685820    6.77883368266321    0.04866057169938
C         1.77287960235923    5.79638871392101    2.41323490141748
C         4.55766907893882    5.47469693943329    1.99163371437027
C         3.42862808491000    4.26613457180951   -2.35798135440372
C         3.27507144608260    4.73977891090145   -3.66231733005053
C         4.38102181875442    4.95857179974082   -4.45962836175050
C         5.67034169828597    4.71809195644799   -3.99698859683444
C         5.82687804164309    4.24555417724774   -2.69870027588891
C         4.72734415171282    4.02422479197235   -1.89716939304258
C         6.85526749805431    4.94056491416024   -4.88586554695459
H         2.29100622893241    4.93708310869746   -4.05336677027163
H         4.24270776147986    5.32603627181386   -5.46695113254279
H         6.81990858036691    4.05103728685631   -2.31732818509873
H         4.85214468736228    3.65291060242414   -0.87983293474330
H         1.59776530592179    1.23677611566582   -2.55837505451611
H         2.62566671449115   -0.19536533580460   -2.33272950844351
H         3.34807477708376    1.37913617449731   -2.73867188365365
H         5.08876663542253    0.87760890422463   -0.48082028660584
H         4.17980174944492   -0.63666899483719   -0.25917233914258
H         4.40677696559988    0.48539300238527    1.10898118129191
H         1.49642064132474    0.21544931490043    1.39609818998384
H         1.61312931790129   -0.85170226424011   -0.03024293922156
H         0.44936162976297    0.49574861388436   -0.00548662997530
H         2.00086908558085    6.87143391789583   -0.44920297766579
H         3.73604949045967    6.68213523582671   -0.71225289578247
H         3.14984574071146    7.66976051390706    0.64666949220070
H         1.75611560948762    5.03819574195077    3.19416459278548
H         0.77739937353153    5.87934621571697    1.97980890323227
H         2.07109802479217    6.75737587080615    2.83152698057113
H         5.37571764515729    5.36618257251738    1.28152918267619
H         4.63652042638359    4.69561117660782    2.74763584098648
H         4.60937070199411    6.45632501335873    2.46139605996421
H         7.75947061537097    5.08910254195513   -4.30011178733579
H         6.70189273362716    5.80664712917900   -5.52619673335812
H         7.00713230549516    4.07252311677726   -5.52884996905525

