104
CSD_code = JOGVUZ | q = 1 | S = 0 | Stoichiometry = C52H45ClIrOP4(1+) | MND = 6
Ir        5.25911914078684   16.44511071699435    6.82977994944517
H         5.50025574503427   17.92796379620235    7.10486878103327
P         7.48381540786131   15.76933446628191    6.60163249152563
P         6.75805285517545   16.54768629265084    3.94965263993063
Cl        5.02476204698983   14.04904957294310    6.47553557011598
P         3.86876877500620   16.29478706965922    3.79916242241449
P         2.96759190063718   16.61679198844858    6.53583611277843
C         5.23607882282845   16.84237194569526    4.72110031397640
C         5.15432437481703   15.93350279682787    8.65255875806191
O         5.01688782515202   15.42433460329891    9.66177296541219
C         6.78375123897422   16.15241627871032    2.19094875360469
C         0.96035174637531   16.16837392048632    9.99825787578095
H         0.79321999091651   16.77426657925015   10.87565475528913
C         1.91273294673731   15.88597282774623    7.80881792614518
C         3.72631592662289   15.24151297614126    1.19329456169402
H         3.45639057790107   16.23582713721257    0.86699245803183
C         2.14708537579041   18.19184429589848    6.16120874774636
C         8.20159796318012   20.27452371495272    4.72745177682641
H         7.83168818472150   21.19863371777125    5.14521558494413
C         7.68774174777868   15.23145394349709    4.84672695243427
H         8.73772966153217   15.13067728531980    4.56200023648987
H         7.14082809079777   14.29176797696158    4.71009344353219
C         8.71843772719127   18.16882468679205    7.35260317192920
H         7.71863932071195   18.50861337922230    7.58560948344141
C         4.44046325348353   12.69146393734850    2.03621693230027
H         4.71650434210181   11.69966259829517    2.36193903880002
C         1.70155375476833   16.66669036088718    8.94565186752096
H         2.12660568120030   17.66252655721073    8.98455585301717
C         6.40366016667158   17.17251010735312    1.32340491333088
H         6.12458436279157   18.13608352657777    1.72973217208652
C         1.40045813515858   14.59570867344365    7.74580891648842
H         1.57960637460216   13.97137615211241    6.88288940302288
C         3.96802340875054   14.99049290246323    2.53856540683749
C         8.01826151879933   14.37860406379374    7.62932485341682
C         2.99485111443802   17.67834800318868    3.00113796848222
C         2.62711173688172   15.67258426769703    4.99619927399020
H         1.59928545057780   15.81162038849993    4.64857734240599
H         2.84030253932910   14.61433555741513    5.17503954758963
C         4.34087595978531   13.71595072988817    2.95763142438433
H         4.55276790176637   13.53596615780584    4.00438880013009
C         8.23612581687942   14.67892328015269    8.97334287726765
H         8.10390933199455   15.69998275207553    9.31287953328063
C         8.89731606125887   16.89074118615673    6.84252286837065
C         7.84893826444229   17.98790877629634    4.10063319153519
C         6.39587468294810   16.94811525840535   -0.03975978400659
H         6.10506305554952   17.73861779424340   -0.71487255423446
C         7.15865186266710   14.91069566069956    1.69338747396789
H         7.45481881379522   14.11716903578808    2.36396887527836
C         9.51190333491835   20.18774354638321    4.28742211682146
H        10.16419901095579   21.04406796343428    4.36419087256458
C         0.84546522192834   20.54189728825253    5.48750305295573
H         0.33761858837409   21.45644589087333    5.22231499412154
C         7.14753756426859   14.69459700262922    0.32707123424925
H         7.43951744529493   13.73199148053747   -0.06446267149592
C         7.36677540998538   19.17597362352184    4.63141146013181
H         6.34348204569308   19.21637237485335    4.97821999246101
C        10.18162390545158   16.42671359167398    6.57083723049784
H        10.32951012050120   15.41391536690864    6.21802008971018
C         3.57704520862724   18.93699257666810    2.98767994573841
H         4.55965014692260   19.05946766457746    3.42436698440447
C         2.90151757084813   20.00880339043136    2.43342980044072
H         3.35788916748387   20.98709169869940    2.42136834422148
C         2.20116026960589   20.55763158443158    5.76698997863159
H         2.75068378635775   21.48575816289294    5.72467236048514
C         4.18334970226524   12.93728116633664    0.69602687036856
H         4.25913012583294   12.13584800775714   -0.02284552448437
C         0.77865534978403   18.18131081140442    5.90114424446869
H         0.22033182144570   17.25724149959063    5.98076705320749
C         1.05375007007902   18.56705241108932    1.90570587390716
H         0.07099710350167   18.42519644997486    1.48196469185356
C         6.76821881979427   15.70876921298354   -0.53724362906391
H         6.76697535838794   15.53379533554204   -1.60205761777445
C         0.13369812335072   19.35434020942002    5.56079113307936
H        -0.92649639925721   19.34521601944253    5.35787314499032
C         1.72896352595656   17.49258535299131    2.45216953306481
H         1.28226385777787   16.50658251213992    2.44084693781276
C         1.63775128533999   19.82482641163984    1.89847490654019
H         1.10544362514751   20.66060036184791    1.47097964226215
C         0.65999733808593   14.10299939233855    8.80704306503475
H         0.25987353610029   13.10142339506606    8.75886566925145
C         0.43784983864958   14.88507333513875    9.92792562495736
H        -0.13779672115639   14.49240390832458   10.75195082566453
C         8.77598788960622   12.38483761972066    9.39596303466615
H         9.06690738235267   11.60472856960875   10.08259024378583
C         8.17709460132228   13.07633723102953    7.17441802385750
H         7.99343494878030   12.82486485593130    6.14003568182174
C         2.85363393024796   19.38493263737934    6.10467394115765
H         3.90981150611122   19.38273211627477    6.33083122093044
C         8.55875128857392   12.08469007936612    8.06193121085873
H         8.67977406349093   11.07136996664822    7.70912020987224
C         9.81261840546124   18.99077347092701    7.55734129675988
H         9.67062636894228   19.98456197501217    7.95372224080267
C         9.15886228997207   17.90757196500737    3.63813984379805
H         9.51908786322847   16.98814764714490    3.19461266425375
C        11.27023045421448   17.25241930612564    6.77277376457322
H        12.26509266664343   16.89190630712169    6.55885542625159
C         3.83345364944271   14.21028668709167    0.27728628576838
H         3.64039724871076   14.40264639733939   -0.76720080829697
C        11.08618874039191   18.53723042222811    7.26007689450012
H        11.93937928916320   19.17860759691956    7.41905102980293
C         9.98908860455714   19.00684135506074    3.73921258866221
H        11.00769174688137   18.94702732413653    3.38711125821090
C         8.61498129978972   13.68444570880805    9.85276647415208
H         8.78058962093419   13.91881206486349   10.89322731502286

