64
CSD_code = JOGVOQ | q = 0 | S = 0 | Stoichiometry = C22H34CrO5Si2 | MND = 9
Cr       11.10714990573500    4.01506255665526    2.28533629366035
Si       14.23430071613724    2.55790948620460    0.71710898139396
Si        7.67026142796443    2.58009160467260    1.90118739894879
O        12.07933297409087    3.52184677987127   -0.87456738392112
O         9.27279627035136    3.41442935682517   -0.53950994293589
O         9.78873826271374    6.63340617380365    1.78352880126499
O        10.73492460614658    4.90341668328018    5.09641559272842
O        13.30053241821350    5.91952796150351    2.90414292596109
C        11.83491784179008    1.82458845603394    2.35910473916898
C        12.39149506843447    2.48134714218286    1.23996214582910
C        11.51226303858793    3.02295728217983    0.27869317249093
C        10.12210658797801    2.96862608744788    0.46212531353651
C         9.56022440538342    2.45545285536988    1.64497793167238
C        10.44479815677487    1.89465571231250    2.60030131178327
C         9.86203204469858    1.24380607273768    3.82738644080505
C        10.90081152010927    1.01757495111326    4.91759683902472
C        12.05616561250343    0.21387055535909    4.33448659221099
C        12.75937234075829    1.07921554021494    3.29012151516159
C        13.04481182463641   -0.22843277097636    5.40820125548511
C        11.75887064040103    4.86866317786405   -1.19047935495735
C         9.25093417779985    2.57779009894362   -1.68109956442612
C        14.77721919264927    4.25505560887268    0.03513217183358
C        14.41250013601000    1.18058819907200   -0.59916499685929
C        15.48585726678506    2.24909696753434    2.13135770702121
C         6.64267254634427    3.36031799713802    0.49798095376016
C         7.36307545481569    3.66420864497620    3.44914952610057
C         6.98415574490948    0.79875940945147    2.12176326449396
C        10.27009393906754    5.59346275586478    1.94944639579001
C        10.84885120695141    4.50915225682175    4.01064118655830
C        12.47851559574599    5.14857403249678    2.62101849227882
H         9.05412166283597    1.86201181277759    4.21517583649980
H         9.43308617681776    0.27799729110759    3.53985627526634
H        11.26813329674611    1.97867309843046    5.28438318785062
H        10.44562719403637    0.48464002872394    5.75400668679190
H        11.64693741961967   -0.68000938175171    3.84767196801643
H        13.42096877268614    0.45019653289913    2.69001718459804
H        13.38399325391542    1.80732344982572    3.81384166576182
H        13.88016648090884   -0.76519766569015    4.96368268284916
H        12.55927105459520   -0.88486800528465    6.12651457678418
H        13.43497614055269    0.63481794257302    5.94236130691271
H        15.85438321707429    4.35879748420973    0.12446583634582
H        14.32830672485084    5.07273866821719    0.58982820156125
H        14.52238552234344    4.37762853189885   -1.01064676734926
H        15.43394980109260    1.13262864194245   -0.96160711730783
H        13.76693598114865    1.37048224353963   -1.45050749149261
H        14.15948519898153    0.20079321215578   -0.20333298865301
H        16.47988792603574    2.47115449813490    1.75606381160920
H        15.50795724599226    1.22887169416796    2.49554822215977
H        15.31118416963785    2.90786527328363    2.97594225452554
H         5.61296087568208    3.46140870711153    0.83020534520357
H         6.63674840668157    2.75774777979119   -0.40380272159829
H         7.00741669634127    4.34684455454689    0.23548556288089
H         6.55837749985909    4.36667039375822    3.25806949404568
H         8.24212397561770    4.24579698223316    3.71792873249191
H         7.06955296983327    3.07620243277174    4.31292524870006
H         5.93653072312821    0.77692253534928    1.83906920741531
H         7.04368384223121    0.45851575289018    3.14950394298691
H         7.50086264283222    0.07110615099107    1.50214760414027
H        12.36888452503507    5.12477782937754   -2.05474432977247
H        12.00268990533944    5.52503221039890   -0.34743149611315
H         8.57345954598055    3.05134679650240   -2.38911083059419
H        10.70254958536288    4.99018255588218   -1.43863059806603
H        10.24280662138183    2.47931872307528   -2.13258377801837
H         8.87391402033132    1.58115960832997   -1.42394242229418

