58
CSD_code = JOGWEH | q = 0 | S = 0 | Stoichiometry = C23H34Pt | MND = 6
Pt        6.80699144697460   11.99358444602612    9.09395756648718
C        10.90468622250602    9.34185734663833    9.23236012025873
C        10.37417923294094   10.36020579484633    8.24663342436952
C         9.71474274839859    9.46016379369117   10.15965625724387
C         8.93849312119405    9.89920518888011    7.90978290612296
C         8.46328567626067    9.27920164545382    9.26840579629656
C         9.56177935400356   10.97192152803665   10.44101451053724
C        10.00889882444286   11.60799860118818    9.08534054396174
C         8.88714314786929   12.20902602168552    8.26593215084957
C         8.27939244657383   11.21065194727548    7.55716750827404
C         7.43019385210614   10.08833824703945   10.03223690989359
C         8.08252150988210   11.07578367278630   10.72497288851346
C         5.22906215296406   12.60422617963451   10.32970095002701
C         4.35781951184077   11.51784227009308   11.00580956430335
C         3.02223331525201   12.18071123612570   11.38840233019164
C         3.43032360486286   13.13892826864891   12.52565677779571
C         4.92215317387192   12.83688737266663   12.71926605368308
C         5.69566732717957   13.45186872106470   11.54649276099475
C         4.97217276905054   11.34560084262798   12.39481622867362
C         5.91807404691356   13.18671150931581    7.62946421805891
C         4.78561494330668   12.51932706372583    6.81374479527492
C         4.99959284319181   11.00150176775465    6.68641392777001
C         4.75902261297378   13.13598644326379    5.40678823863945
C         3.40725205779738   12.73846098755183    7.44688467345215
H        11.84108336170618    9.64352742261181    9.69976495968241
H        11.01609224288299    8.34807360900156    8.80078553360534
H        10.98983606263301   10.57363197831708    7.37370307915705
H         9.71914423580974    8.83859840316470   11.05427812950648
H         8.88176102375465    9.16520981392395    7.10524260924086
H         8.15793761349179    8.24054245357014    9.13483496445216
H        10.17469489742595   11.33618154422703   11.26656277750502
H        10.83464684071116   12.30517523757343    9.23274895538798
H         8.87802858118732   13.26932892634816    8.03202384380615
H         7.73084443409221   11.32519044429352    6.63457012458001
H         6.46944654928214    9.65188317978330   10.29085260490131
H         7.74764496469738   11.56858859361074   11.62400856088123
H         4.54719160455749   13.23755110484555    9.75892563514795
H         4.21822756701683   10.60628801242097   10.42149034352860
H         2.56193309657848   12.70402401344540   10.55188385837647
H         2.31314111465932   11.43050672663973   11.74417095062241
H         3.26391317928818   14.18326561601011   12.26374163744613
H         2.87201171447358   12.92937497494194   13.43904968038826
H         5.30329100777466   13.13190882808597   13.69771926218794
H         6.77138805762034   13.40281001776378   11.73532800820924
H         5.45001576680637   14.50647929016415   11.41350657683900
H         4.34319175734831   10.75081420712019   13.05757796130694
H         5.97438923571543   10.92849531733741   12.39730297553484
H         5.55488860236138   14.15360491808067    7.99902530272426
H         6.72834417717310   13.42601571791591    6.92398114088195
H         5.78181878972593   10.77068007133119    5.96746647061827
H         4.08553870418866   10.51898942753747    6.34441881966347
H         5.27189568596791   10.58143265345018    7.66459141149646
H         4.56243782704208   14.20422401262945    5.46562518195122
H         3.97845112322581   12.67673432396043    4.80264344919338
H         5.71075970847806   12.99237482061313    4.89824958432347
H         3.24911337939887   13.78752611359061    7.68632324103720
H         3.30700997176044   12.14797439789247    8.35156842373803
H         2.62639117879960   12.43000293179847    6.75303284041225

