58
CSD_code = JOGWIL | q = 0 | S = 0 | Stoichiometry = C23H34Pt | MND = 6
Pt        5.79055640656266    3.67911158099686    1.68398348857640
C        10.62781054734453    3.52684391433887    1.17100598616444
C         9.50602761419302    2.68051472036766    0.60909952930216
C         9.69776550708591    4.44500177211164    1.93411469722361
C         8.65100121422815    2.26533848367140    1.82769684348877
C         8.50724650630477    3.67592519308771   -0.02694431889877
C         8.65345525347307    4.92507230751376    0.90121942655967
C         8.77466232567240    3.51847000284331    2.75958301019614
C         7.29203519538845    2.08606630953895    1.19289235627537
C         7.19767705985693    2.92967317541674    0.11765122460850
C         7.45535168307870    5.19139624222637    1.78210931789131
C         7.52094342879622    4.36408584554063    2.87482873569728
C         4.27625270557822    4.88363047382491    2.49883865385813
C         3.34797391771569    5.50833443786744    1.43659983947277
C         4.20310492204321    6.33737975696431    0.46714830018268
C         4.55708435322924    7.58587339424275    1.30001026667307
C         3.91104172536117    7.28891481264874    2.65775199318172
C         4.66946950525269    6.14000099720471    3.33570031116452
C         2.62191402443258    6.59763053538827    2.22809178360020
C         4.26424399783215    2.35509177355205    1.14918587367540
C         3.80014953308251    1.36893895330649    2.25302704730809
C         4.74090459822030    1.35974882566273    3.47140912717112
C         3.74621876440998   -0.05511462609711    1.67856619466897
C         2.38582377206999    1.72314252500090    2.72973930207819
H        11.20194764566746    4.04328785414744    0.40286677362259
H        11.30327086767548    2.96682124394093    1.81633836185675
H         9.78677991369168    1.85271227191535   -0.04097781074997
H        10.15603856011296    5.24752342652785    2.51085944321665
H         9.00344070629512    1.36617326188107    2.33449578328105
H         8.72898073466862    3.92959176084402   -1.06439190965052
H         8.96017912633648    5.80357536073026    0.33191760528166
H         9.17837803069940    3.24019670059458    3.73390424013643
H         6.73055553271532    1.17428584372009    1.33821559233090
H         6.52782248909740    2.82395993194251   -0.73066307003818
H         6.93918836044958    6.13670743222954    1.71028426358427
H         7.05750434271050    4.52858222203454    3.84426312405227
H         3.64507203913646    4.26300592512556    3.14916589277849
H         2.69645445698032    4.79704603432414    0.93387893257434
H         3.63565511622363    6.60748060814049   -0.42443488884671
H         5.08354869076078    5.76577873007325    0.14833830830976
H         4.11633989024177    8.48343741108202    0.86258070151854
H         5.63003255236584    7.75966611182608    1.38350068145538
H         3.80483419338578    8.17090702511029    3.29033676361824
H         5.73436262427009    6.36191670278642    3.38467238400784
H         4.32480989811981    6.02601269419155    4.36703577405743
H         2.04440267439677    6.20614335066357    3.06375389342276
H         1.98387807722446    7.22523032674509    1.60693187530475
H         4.67785336058102    1.76035844828086    0.32111182026347
H         3.37707516205221    2.84477595947573    0.73884288320974
H         4.97703935229311    2.37999964489555    3.78725373447074
H         4.26868833838458    0.84327809532543    4.30624082489736
H         5.66882886505227    0.83867459826712    3.24746756977169
H         3.40722206809722   -0.75952456604519    2.43630396361827
H         3.05673891676253   -0.10021291009174    0.83816119227588
H         4.72649580861013   -0.37742744806195    1.33179451255256
H         2.36035054748588    2.70962484112056    3.18209073410223
H         1.68922637399462    1.71364138085830    1.89409461953177
H         2.04059012226520    1.00029831816932    3.46735644008559

