36
CSD_code = JOGXOS | q = 0 | S = 0 | Stoichiometry = C7H22BNO2P2W | MND = 7
W         2.01125563949723   13.96000675239081   -0.00448365891041
P         0.08347869124463   12.43517664141714   -0.05379162838265
P         3.92055703359746   15.50843889758172   -0.01302988605105
O         3.46766780359799   12.16860848006487   -1.84897996129902
O         3.38120204007472   12.21504519434277    2.18067741056966
N         2.87845077442359   12.89348592778378   -1.12326766603512
C         2.85415494797027   12.88601921451709    1.40428780825153
C        -1.08230661140683   12.46790899730582    1.35707892153968
C        -1.06137739165945   12.54154542212239   -1.48081654230159
C         0.54829246355335   10.66741864629701   -0.10458716229811
C         4.09160697284668   16.65230958731228   -1.43450444520751
C         4.11837039234113   16.65023906104091    1.40390646203813
C         5.54507316314877   14.66940994570249   -0.03790818517487
B         0.56330992962587   15.76835868828639   -0.01280885585910
H        -1.86697593507064   11.72139493050420    1.23151080331832
H        -0.52622904735870   12.26815485380859    2.27273861943450
H        -1.52564610321846   13.46017726010794    1.42647670635632
H        -1.84713433001637   11.78887249711695   -1.41117830504528
H        -1.50452345840023   13.53592149160749   -1.50556860769573
H        -0.48843592493327   12.39153069808820   -2.39586923447739
H        -0.33361414925954   10.02866115535015   -0.15465263208548
H         1.17715499838882   10.49663733966472   -0.97745266993424
H         1.12646153751852   10.43147018098219    0.78738155785714
H         4.99744340991098   17.25306931326243   -1.34854771551072
H         4.12683954982605   16.06279983938460   -2.35066084996593
H         3.21957418678244   17.30342773368120   -1.47164785027145
H         5.02053144649129   17.25288280925790    1.29571536285228
H         3.24594054518802   17.29979799568062    1.45855315042101
H         4.17498554316659   16.06242981298166    2.31979001762812
H         6.36163456890777   15.39079205179214   -0.07174333555800
H         5.63386488353503   14.05095699675695    0.85378266071429
H         5.58949190690125   14.02112600024461   -0.91212304128913
H         0.93259217581569   16.89738137733595    0.00177342527197
H         1.09667769487471   15.08796507566229    1.03777878140731
H         1.10320024889773   15.10811754723403   -1.03219941428184
H        -0.61916959681155   15.65436158333794   -0.01483004002708

