76
CSD_code = JOGXIP | q = 0 | S = 0 | Stoichiometry = C33H35ClIrN3O3 | MND = 8
Ir        5.67943996782714   15.66515989192810   11.98512043299433
Cl        7.52152842062746   14.42559415001581   12.73944301323904
O         5.98998597140051   19.58295919345766   12.57439792849049
O         9.45192000390381   18.11908286228732   13.09195276706954
O         6.66003309602192   15.74836924072900   15.80941946218498
N         6.63990739062459   15.60933359274078   10.21316396508538
N         6.73583205245528   17.50851315597128   12.00864502335859
N         7.83239956088193   17.18187577947099   14.44878277884044
C         6.66530315735579   14.56457913856252    9.40982724283652
H         6.21219624120553   13.65230373405228    9.76773189977584
C         7.27231064636560   14.60788137235493    8.14990551256716
H         7.26293757779174   13.72237030266189    7.53410267077903
C         7.86412630400177   15.76658559617560    7.72215628560099
H         8.33305967703416   15.82870780552182    6.75135606058232
C         7.87948301899598   16.89357089742173    8.57015234311438
C         8.48233850797277   18.11984167422733    8.25576780723592
H         8.96039393052219   18.24062573377857    7.29602283952979
C         8.47503137716130   19.14064736852093    9.17964557260635
H         8.95356750488637   20.07792522099396    8.93680261909284
C         7.88181587525676   19.00477238578702   10.42945664752857
H         7.92367477167044   19.81586151884182   11.13577966453511
C         7.25125261336349   17.81635316575975   10.78281363277049
C         7.24781082018665   16.75592554130315    9.83557784112062
C         6.47026782765279   18.51275058719610   12.90081032340045
C         6.77327889485761   18.16540868411544   14.36088028637037
H         5.89845655268553   17.64999048475133   14.76974705845231
C         7.01978463827645   19.40513399097172   15.27164896077573
C         5.66540768419131   20.06314923913683   15.55559862392460
H         5.01558515941179   19.38869874232299   16.11049157062034
H         5.18148302754187   20.34119901741960   14.62396717693322
H         5.80938948139073   20.96312370312198   16.14899904753623
C         7.95388232533574   20.43167621750309   14.62834999840508
H         7.47320610874142   20.89411979330186   13.77157380955979
H         8.87839934667819   19.96945823551326   14.29561822316244
H         8.19351761855006   21.21041260997044   15.34975598087971
C         7.62477638550509   18.93266701874113   16.59884109453983
H         7.64365197216548   19.75914298220850   17.30571488641465
H         8.64661040682135   18.58262693210193   16.46389946862734
H         7.03641062509128   18.12603821697613   17.03170520190652
C         9.07561968497265   17.24721010777757   13.83518074617755
C         9.81373593693259   16.05596855020806   14.31637800566567
C        11.09657864746534   15.62958470884213   14.05052006548852
H        11.74017469250479   16.19332695599020   13.39314642103892
C        11.52373239841496   14.45088304642250   14.65430832922812
H        12.52382089540949   14.08959542718932   14.46474822221303
C        10.68565714563513   13.72962134393611   15.48941532190738
H        11.04459505796288   12.81615684623859   15.94042440078858
C         9.38791918592086   14.15662177382824   15.75123110091402
H         8.72689845474276   13.59282007096350   16.39039642163305
C         8.96750644943911   15.32533136391291   15.15418393070556
C         7.67267476796007   16.03366008785560   15.21195812232843
C         4.08523724913466   12.74324499118160   11.47124320455142
H         5.00073122822355   12.25263249836435   11.79827268922020
H         4.01176235085543   12.66447715376246   10.38919171787218
H         3.24191873559659   12.20695525071889   11.90897809890508
C         4.06226430837267   14.17157355068204   11.91710616081836
C         3.61071492772006   15.29959106481620   11.15450980871755
C         3.56205273795818   16.42585066390772   12.02381188301453
C         3.88362167678382   15.97395133531323   13.35883870586092
C         4.18544993684572   14.59160801697346   13.29177831037827
C         4.44584757225861   13.70040850223828   14.45918643052041
H         3.50042722650472   13.43469209625463   14.93539031486623
H         5.07130329784381   14.20547682311101   15.19267730705975
H         4.95043965133748   12.79018223252962   14.14776046434652
C         3.18407465150188   15.27671832451555    9.72232671311821
H         2.12022469136067   15.03999966643006    9.66269404205559
H         3.73046972992710   14.52590038811860    9.15523388151035
H         3.34406462837616   16.24272688425478    9.24856951208504
C         3.05313791848931   17.79182837320513   11.69913084145519
H         2.92853027008748   17.92186077856450   10.62738178698145
H         3.73808106391312   18.56058034147390   12.05648972070768
H         2.08776888730002   17.95154819375916   12.18157111021371
C         3.59528801700471   16.73110630853810   14.61440966760893
H         2.57348801488863   16.50891173836653   14.93168220447821
H         3.67155339685544   17.80436721416166   14.45628730992494
H         4.26367797109919   16.42429154763706   15.41656130323388

