152
CSD_code = JOGYAH | q = 0 | S = 0 | Stoichiometry = C77H67Br2FeN3S2 | MND = 5
Br        1.92823861769478    4.71971772041733    4.95593980630897
Br        1.41046151928909    0.73739914063132    3.57092236963015
Fe        0.91928638006242    2.79015372451678    4.35876496035988
S         1.01716169853558    2.02026849276554    6.47824771035904
S         0.65217523351169    3.56356542602311    2.25727147437079
N        -0.85740255924350    3.02475358853012    4.59933885723212
N        -1.10892330091834    1.74788842937488    7.98778137436523
N        -1.59525721845048    4.56258123201417    1.38746092902201
C        -0.62332684570033    2.14903564480545    6.80217352661605
C        -0.97776347833280    3.93401145241340    2.40303229930740
C        -1.47410187092407    2.70790615581721    5.78937324459568
C        -2.83866283830939    2.89464510926731    5.98918870509890
C        -3.63109922474139    3.39362723787064    4.97258581912187
C        -3.02744982424764    3.72103773996353    3.77423837410031
C        -1.65599117537885    3.55146566618460    3.60762413200064
C        -0.41457066399224    0.95529727410255    8.92814864845389
C        -0.24635591144709    1.46923084302054   10.21864030527461
C         0.42271792557493    0.71600242871146   11.16400901848763
C         0.94180454810428   -0.53288191792301   10.84513134523120
C         0.73237815112874   -1.03738045742850    9.57193719954753
C         0.02926969271660   -0.33030114476894    8.60460201550555
C        -0.23471441079042   -0.92841403067318    7.24210296496289
C        -0.02928278442082   -2.42650738004441    7.17748717501419
C        -0.74811423353870   -3.28553560015615    8.00049418044304
C        -0.57540554157644   -4.65407907296664    7.90771504437208
C         0.31145569681794   -5.18219431297907    6.98421667603600
C         1.02129724512197   -4.33353339345248    6.15320857907101
C         0.85090056339781   -2.96298061747613    6.24796181619504
C        -1.63142713246221   -0.65389040650522    6.72615887587907
C        -2.73078232384113   -0.61263074640761    7.57595128853173
C        -3.99766372819724   -0.37076051917426    7.07604097458971
C        -4.18634044074599   -0.17881569062744    5.71780663519559
C        -3.10026293255826   -0.24052551517256    4.86210590507359
C        -1.83266897626463   -0.47758705675712    5.36268580575548
C        -0.81691928178773    2.84244733555816   10.52029506213245
C        -0.40925725531227    3.34326328522855   11.88826579529231
C         0.78443125202165    4.04261267945809   12.02189208155083
C         1.20564842048544    4.48763556526348   13.26165148581844
C         0.43583397190820    4.24128679847341   14.38591845310748
C        -0.75546969596675    3.54795217349958   14.26100127822397
C        -1.17550309424545    3.10008169242350   13.02049270830449
C        -2.32034297861037    2.83446183197153   10.34839045234926
C        -2.96920827247431    3.95317697523336    9.83655750470448
C        -4.34113732797310    3.95033686218748    9.65461008167527
C        -5.08371813405778    2.82854796117187    9.98363812874109
C        -4.44822286783502    1.71308614810229   10.50280404538482
C        -3.07643769088083    1.71510454117440   10.68448952185411
C         1.70141285928700   -1.33509162385893   11.87130797835533
C         0.80376147407537   -1.67624284954484   13.06290456803679
C         2.94992270303154   -0.57981962694121   12.33073846800629
C        -0.86200386362772    5.23866175952011    0.36930792708767
C        -0.87627012737707    4.71694866207745   -0.92182161425791
C        -0.16310641483944    5.36530455356869   -1.91788824377130
C         0.56965218935398    6.50977710020627   -1.64698897163207
C         0.57284028208473    7.00752132661683   -0.35180781311094
C        -0.14286448529315    6.40139400411192    0.67018002987721
C        -0.08074624945816    6.93245948414115    2.08519727810345
C         0.49560606816720    8.32806494724412    2.19897765779423
C         1.61302887685806    8.54860124707438    2.99231410388925
C         2.12717575817495    9.82573876528352    3.13755086044892
C         1.52858741079131   10.89502270985349    2.49474267835567
C         0.40909852576417   10.68256474559189    1.70746369812880
C        -0.10674305565706    9.40782479091432    1.56403982904735
C        -1.41333956358615    6.95606489569890    2.79882927129409
C        -1.45422623637658    6.72542934391257    4.16890126414478
C        -2.65328783997189    6.77774949967125    4.85619082902570
C        -3.82917137679399    7.06535773563845    4.18431931855912
C        -3.79679739723899    7.30648942137678    2.82130117639639
C        -2.59684807656447    7.25523512979998    2.13323893545780
C        -1.62674348772398    3.44173429807899   -1.23085186978159
C        -0.66724815552115    2.48292624240702   -1.90851059144473
C        -0.59107873151982    2.37788777979334   -3.29086534492365
C         0.33110077046808    1.52944026192183   -3.87857330669445
C         1.18848349087994    0.77934636864776   -3.09250236873265
C         1.11895349163351    0.87976935432963   -1.71342495941073
C         0.19743397733391    1.72751117697896   -1.12694399712537
C        -2.88486788486300    3.66590948550373   -2.04079335434078
C        -3.31508127869891    4.92553029951536   -2.43279435630747
C        -4.47737257045368    5.07291594586272   -3.17212667801064
C        -5.22558459819127    3.96498616558986   -3.52626116630259
C        -4.80896103466794    2.70425591843926   -3.13034120553273
C        -3.65066216924570    2.55778894105532   -2.39137136899776
C         1.35763556063469    7.19723278383007   -2.73326914133843
C         0.42925994894350    7.68787388907659   -3.84646511700172
C         2.43031296071188    6.26032761502837   -3.29203425862143
H        -2.03411877123040    2.04895412916873    8.26549657247892
H        -2.57565014357776    4.79121333857366    1.47160690950809
H        -3.28797546946900    2.63926141016542    6.93549797241637
H        -4.69069112201107    3.52644719262471    5.11305547864636
H        -3.62450282807318    4.11337959279542    2.96673062626311
H         0.55304733373343    1.11573079450540   12.15732669712972
H         1.11665438273386   -2.01540886079453    9.32378140269689
H         0.47874900611784   -0.47742230158545    6.53930186991862
H        -1.44240307655500   -2.88090469240107    8.72227918881705
H        -1.13634336985778   -5.31121027616611    8.55664757556803
H         0.44503337996097   -6.25156149924678    6.91199442714329
H         1.71049381410533   -4.73765175116565    5.42674623534272
H         1.40447935167451   -2.30707184765242    5.59171694157747
H        -2.59560113600029   -0.75212073629723    8.63939300967102
H        -4.84085069041407   -0.33158912695835    7.75108882208519
H        -5.17570993666120    0.01231018238352    5.32878447611655
H        -3.23808127165289   -0.10015510686038    3.79995000109407
H        -0.99099755495401   -0.52764502430371    4.68829909463100
H        -0.39704478253923    3.53810677473613    9.78139394920528
H         1.39061839977042    4.23376079485733   11.14785047370956
H         2.13618314227844    5.02863652351532   13.34991134767744
H         0.76248834842323    4.58891852207760   15.35468452516530
H        -1.36185589483701    3.35240904099479   15.13342730180666
H        -2.10676596898336    2.55954681000376   12.93614302913386
H        -2.39259245504352    4.82944936882650    9.57564583813439
H        -4.83070986377001    4.82528740783774    9.25293498328153
H        -6.15370989077379    2.82506297983472    9.83904149205919
H        -5.02256997695691    0.83764100597023   10.76802508136585
H        -2.58309075695243    0.83990734020019   11.08310261673455
H         2.01998133544042   -2.27273424183688   11.40307050839868
H        -0.08375826552111   -2.20939787701319   12.72851358928355
H         0.48954181849832   -0.77359760086382   13.58153889405562
H         1.34001728092543   -2.30722641638844   13.76789754210214
H         2.68004022354548    0.34442580513588   12.83596444361892
H         3.57738674417618   -0.33405246554559   11.47720211254006
H         3.52652380684635   -1.19256924744786   13.01994811151780
H        -0.17325050893671    4.95103311165489   -2.91354809168119
H         1.15475613030029    7.88918057140984   -0.12862505043541
H         0.58918082800509    6.26815807757225    2.64609440728619
H         2.08205376627425    7.71947263978021    3.50199344627549
H         2.99761556562908    9.98372851012230    3.75671002127769
H         1.92952051545099   11.89160284894121    2.60780481024220
H        -0.06561799486706   11.51340464268756    1.20551080221873
H        -0.98106753900671    9.25057478346359    0.94941243353394
H        -0.53841171089577    6.50604527190213    4.69779853949649
H        -2.66934192263145    6.59220447056699    5.92027060656389
H        -4.76632797103609    7.10617148591718    4.71965702030355
H        -4.70951898180906    7.53775288515387    2.29048947262968
H        -2.58258579946468    7.43820620725471    1.06718396193182
H        -1.92859989758936    2.98260245448355   -0.28086206969751
H        -1.26369349544472    2.95202129358613   -3.91317298791577
H         0.37927578576078    1.45544398172436   -4.95557082300585
H         1.90720263728894    0.11809501709669   -3.55349228123977
H         1.78089684487995    0.29786974056807   -1.08999956324324
H         0.15389894877852    1.80367424822507   -0.04996516608914
H        -2.73987615197469    5.80028110009687   -2.16593317312098
H        -4.79613122443779    6.06022408339227   -3.47388690082793
H        -6.12865627750683    4.08150120359434   -4.10687677315065
H        -5.38840500818439    1.83329798651195   -3.39963741699351
H        -3.32432309936013    1.57319731248983   -2.08719356643374
H         1.85686042561974    8.06813237457778   -2.29462397581429
H        -0.07083224570761    6.85229166367488   -4.32998206865171
H         0.99885826397296    8.22830484497996   -4.59898889668534
H        -0.32847607338245    8.35576249149098   -3.44192843040548
H         3.07862401759372    5.91037191951592   -2.49216574292981
H         3.03770819635359    6.78167753418680   -4.02844471000852
H         1.97901018238088    5.39372946265496   -3.76884575597072

