43
CSD_code = JOGYAF | q = 0 | S = 0 | Stoichiometry = C17H20CrO5 | MND = 9
Cr        4.29682121867494    3.09477821782305   11.24352968635531
O         6.17750896835001    0.54898755561580   10.15049553731359
O         5.02686225716444    0.06540681913984   12.44179160510862
O         3.26353685118927    4.98403736051228   13.29580596923611
O         5.06017485486988    5.66435798798646    9.95379081270789
O         6.82195329537090    3.66258627232344   12.71015469758566
C         2.94732149237480    2.32703576926931    9.59977969585109
C         4.26009435291628    1.84327886090981    9.36026386647128
C         4.94102027319839    1.09146289640939   10.31573431774148
C         4.31026250656569    0.82595275792244   11.57125473734614
C         3.02125943816779    1.30602368854513   11.80056523733320
C         2.32328987517698    2.04871664551941   10.81381883709066
C         0.91885573466649    2.50151280789788   11.11541820022157
C         0.17453346991242    3.07224212592562    9.90309237244310
C         1.12546681965487    3.97667662636838    9.10674343319941
C         2.24059957891554    3.10337341022372    8.52632366994747
C         7.01917516344792    1.12327656329204    9.17446673068469
C         4.69081337313905    0.14524627404018   13.81000071886012
C        -1.07840611190520    3.79855837847946   10.38633285674725
C         0.42722604529407    4.73376696867339    7.98071823082438
C         3.63829536414478    4.22932907242398   12.50050794591008
C         4.74856813734814    4.65345623358395   10.42507220405004
C         5.85078631789837    3.40333331601070   12.13730829690543
H         4.70073157600222    2.00777497155275    8.38478762389502
H         2.50507630850918    1.05250639447792   12.71822178899865
H         0.96343009478025    3.27280084267316   11.89186794308694
H         0.34934344121930    1.66292449621173   11.52938843361265
H        -0.13330029652097    2.24420639086273    9.25250971125562
H         1.57896894784578    4.70076226431172    9.79442835683009
H         1.80934596584978    2.40932686211277    7.79410897834236
H         2.96173568362169    3.73079585379533    7.99637078916744
H        -1.64961291102828    3.15495276669351   11.05243602868356
H        -0.80626818841207    4.69996880449036   10.93074255937900
H        -1.71988377654488    4.07304479799018    9.55418526296411
H         1.16246765455418    5.26400808433383    7.37973697193797
H        -0.11437455751499    4.04642021533218    7.33321799415719
H        -0.27177204635296    5.46497830939365    8.37468778162340
H         8.00552184191086    0.69997838660604    9.35412356517328
H         3.75503895499251   -0.37967046890314   14.03022989645319
H         5.50540561673364   -0.34477098571391   14.33975049702559
H         7.06112590300465    2.21260229476213    9.28590101968939
H         6.69938771099068    0.86509622958826    8.15911733307550
H         4.61711279982452    1.18939688053414   14.13411780471464

