47
CSD_code = JOHCEP | q = 0 | S = 0 | Stoichiometry = C12H8B2FeN12S12 | MND = 6
Fe        6.63819342470417    4.86625904028428    6.98180451723310
B         8.63149803680718    7.14658011972060    6.66956653778516
H         9.39538426878255    8.01987980832440    6.54988731589289
C         9.06202703205574    7.30595791908442    9.20160491661141
C         7.47783902326300    5.49862891972736    9.68556226603000
H         6.83426141980565    4.73878733623059   10.07916318436064
C         6.89781035387079    8.70126927756663    5.57439957314695
C         5.14110263793070    6.99601662036277    5.70175215676800
H         4.26311640839215    6.38371730166423    5.67595144679982
C        10.20949186446081    5.75297398139722    5.18984903689099
C         8.76024450060934    3.78065079780495    5.32888231820285
H         8.25808222291072    2.83636114836452    5.27805750870414
N         7.57264505605649    5.75267232089226    8.42223012581617
N         8.43347897170512    6.73890688512699    8.14188997243594
N         6.26570378294542    6.58986957657965    6.19149875897168
N         7.23619485407171    7.50976838866093    6.12699636540591
N         8.29131366303971    4.79029315849206    5.98479534936067
N         9.07314523900390    5.87509277072407    5.92025297508873
S         8.46738832265238    6.47376083211733   10.69218850748028
S        10.15058003018328    8.50061412358396    9.20274967948719
S         5.15818818333823    8.60017057287239    5.09361564780550
S         7.82421948462811   10.00799769625350    5.35854920068858
S        10.25582253385597    4.06741616806566    4.53863916419863
S        11.34896106089609    6.86480908068931    4.91067212782487
B         4.64491565029584    2.58591459790121    7.29406306706681
H         3.88103543009393    1.71260991323967    7.41374372066286
C         4.21435840051718    2.42651992774372    4.76204124997262
C         5.79852755259838    4.23385955539351    4.27805019211116
H         6.44208893099308    4.99370708165543    3.88443445809016
C         6.37863275601398    1.03123376697546    8.38919169075628
C         8.13532314326744    2.73650142727199    8.26182514743382
H         9.01330617778180    3.34880549598458    8.28762119144783
C         3.06693830788544    3.97950120922425    8.77381561758108
C         4.51614311754735    5.95185233344992    8.63472935027620
H         5.01828678979571    6.89615341824679    8.68553345182667
N         5.70374890364822    3.97981559446331    5.54138578670193
N         4.84291848777264    2.99358168279467    5.82174155734011
N         7.01071444519687    3.14264112578224    7.77208613220155
N         6.04023147289583    2.22273529913100    7.83660656040145
N         4.98507786913306    4.94221207624182    7.97881585257554
N         4.20326932345830    3.85739766428529    8.04338532897691
S         4.80895260513760    3.25873176835473    3.27144389720792
S         3.12578144758732    1.23189969912355    4.76093087551156
S         8.11825980715927    1.13234204750685    8.86995289032292
S         5.45223867536038   -0.27550141440703    8.60505033169137
S         3.02057210045876    5.66507683196504    9.42498268074678
S         1.92748622943238    2.86765505308219    9.05301031610631

