45
CSD_code = JOHJEW | q = 1 | S = 0 | Stoichiometry = C24H16CuN4(1+) | MND = 4
C         9.50123719504848    5.04888258492678    1.84961422548884
C         8.07950672753742    5.04038336406004    2.00488598506374
C         6.24033429641781    4.13410748455401    3.03613682096983
H         5.85622036351132    3.41371619624560    3.74457700902295
C         5.37663438386299    4.98085254730021    2.33882006635123
H         4.31393557077717    4.91629718005945    2.50787034284331
C         5.89898257231677    5.88734308186411    1.44441695136995
H         5.25877753152978    6.55666386479435    0.88967887441110
C         7.28979736405595    5.93745744009164    1.25454126733383
C         7.92748284593822    6.83945533580447    0.35348954623616
H         7.30615892753502    7.51812883940762   -0.21089088238413
C         9.27469155575563    6.84808205111471    0.20731937069385
H         9.75216735218040    7.53372924780298   -0.47610095909160
C        10.10137370722666    5.95474370730175    0.94915473153697
C        11.50107114660577    5.92065818861519    0.83678203180132
H        11.99997967957670    6.59713951048688    0.15924630932748
C        12.21358525111402    5.02069866755779    1.59635226192830
H        13.28849788590620    4.96863186833120    1.53381076967990
C        11.52867580339326    4.16360557136691    2.45982548845223
H        12.06312800791183    3.44687985749656    3.06750403205977
C         9.36573660146016    1.65346213146594    6.08455379695234
C         9.24617303864404    0.66238556542686    5.06036483870700
C         8.92756282371823    0.19170068382422    2.83684148966152
H         8.76387387669118    0.57483744475693    1.83941159448491
C         9.00922306531405   -1.18242071936213    3.07004259714103
H         8.90795097430712   -1.87064545695923    2.24653592720962
C         9.21912919961386   -1.63629514972990    4.35241891156352
H         9.28835999628795   -2.69220550753296    4.56652018585866
C         9.34463897150689   -0.70472976350540    5.39614729546711
C         9.56467271192053   -1.07292073036806    6.75557957757327
H         9.63848439287585   -2.12353664718848    6.99208713458129
C         9.67917392426712   -0.13374682528444    7.72576472204588
H         9.84650934492534   -0.41832575883310    8.75347384363042
C         9.58275841355063    1.25538043064932    7.42094975860611
C         9.69342786477771    2.26959890296247    8.38637940976769
H         9.85992839621747    2.00795624641389    9.42050032147607
C         9.58655748103213    3.58442363498484    7.99347219902577
H         9.66611581088490    4.38666446318764    8.70911559097040
C         9.37147262752868    3.87873332909154    6.64572749093505
H         9.28322831124257    4.90247324663399    6.30998712854232
N        10.21777042082587    4.17586507952834    2.58356654649316
N         7.54766507106809    4.16109428601753    2.87666468404381
N         9.26480472322494    2.94678852866958    5.72138535135521
N         9.04228860086791    1.08551837965337    3.79747096629179
Cu        8.99415518904559    3.08518761631403    3.74040439452176

