38
CSD_code = JOHLEY | q = 0 | S = 0 | Stoichiometry = C16H16AgClN4 | MND = 2
Ag       -4.68260076953390    9.58088452158472   12.18578761171450
Cl       -3.71420039254417    8.00063760279859   13.44396647878043
N        -6.80753408322298   10.88149111597574   10.40554690490009
N        -5.04006649094992   12.07138330249412   10.20284849538101
N        -7.26055849666896    9.03364899866301   11.72595232497635
N        -8.88911099122666    9.89943978965648   10.24212061239964
C        -5.52565491322665   11.01102703841086   10.86406590346113
C        -5.97906349803532   12.60427422676207    9.35152198053331
H        -5.76953608166044   13.45365113317298    8.73366015521274
C        -7.09496400932157   11.85631853501276    9.47360478740363
H        -8.05189994875766   11.91304740453307    9.00021964040487
C        -7.68891802286279    9.89714638112579   10.80909833188330
C        -9.72597467402964    8.94795670859050   10.61662934159027
H       -10.69877211862438    8.96894343142224   10.14344737179596
C        -9.37924355224130    7.98617011935858   11.55570106531277
H       -10.06334048587533    7.21046782696400   11.85376583573311
C        -8.10306785832790    8.08348763137204   12.09424185182442
H        -7.73300495123688    7.39299771231769   12.83903370907679
C        -3.72857871501512   12.59369525150032   10.37126764900688
C        -3.55175371054136   13.72899674790834   11.16268810597150
C        -2.27287004218009   14.24355600501465   11.29893938034823
H        -2.12048576414781   15.12030353911481   11.91145747833756
C        -1.18292308872276   13.65184871415020   10.67391079014928
C        -1.38954550433442   12.51862560392622    9.90115292046361
H        -0.54766205321001   12.04475799361831    9.41818092829543
C        -2.65353865832049   11.97148071369107    9.73791247114976
C        -4.72069053093818   14.35442528955409   11.86146556953804
H        -5.23085898236008   13.61260409760190   12.47587571573189
H        -5.44100468162383   14.74925788956200   11.14494722118561
H        -4.39115674402055   15.16789837190829   12.50150374130488
C         0.19170793627957   14.21441615481998   10.86084888475716
H         0.59439818068388   13.88846342502834   11.81990270385035
H         0.16890220791420   15.30204855512265   10.86056290349577
H         0.86348375861525   13.87307919293480   10.07763991661909
C        -2.86092680469961   10.73479644767772    8.91936170808997
H        -3.13469383494391    9.90100552374115    9.57455734372291
H        -1.95093107370265   10.46907775478588    8.38929609724965
H        -3.66406055638621   10.87038924811874    8.19581606835089

