39
CSD_code = JOHLUO | q = 0 | S = 0 | Stoichiometry = C16H16Cl2N4Pd | MND = 4
Pd        6.50408960798420    1.85948795590616   14.20002044177751
Cl        4.29443638651559    1.88039359001234   14.14415017641132
Cl        6.47332457460794    0.83029759819380   16.18563217360644
N         8.07999727371305    2.78013478832937   12.07672905185384
N         6.14142210205346    3.60463740342112   11.62422430925161
N         8.53035776675718    1.67374789833266   14.02656798888852
N        10.26584524964859    2.05855146661191   12.45023663790996
C         6.77502957917368    2.81494845193649   12.49538217466861
C         7.01691801869820    4.04843136868164   10.65824950009708
H         6.70322060458861    4.70208355914779    9.87015968083982
C         8.23539619477726    3.53369428214382   10.93308761883608
H         9.18192751013828    3.63026454300343   10.44489706426709
C         9.01719401332819    2.14544722292120   12.85967537290995
C        11.11852909229351    1.43768621231647   13.25273826694185
H        12.13671681887228    1.37970251537831   12.89602537685009
C        10.72078058408335    0.89800585989427   14.47005795089309
H        11.41572251136509    0.38944362623197   15.11576311948860
C         9.38963856025897    1.04334698174522   14.82726509371976
H         8.97549291433673    0.66768738103313   15.75764573707480
C         4.78493014218812    4.01350537623746   11.75621878375631
C         4.44236107543168    4.86095502113218   12.81176005452622
C         3.12143293995296    5.26072026507584   12.92046274799127
H         2.83383714224757    5.90953562139530   13.73424291976887
C         2.15360572119308    4.82747411622567   12.02351329895590
C         2.52446102844327    3.96928768842387   10.99968877040042
H         1.77522336090828    3.60566788019443   10.31183338784413
C         3.83591844569115    3.54464974251219   10.85243658963381
C         5.46442016153518    5.29267530663426   13.82012146771434
H         5.05938299999288    6.07150006770723   14.45982094542628
H         6.36910708596238    5.66674534448030   13.33956086877867
H         5.73796700645764    4.43358462304284   14.46106559356294
C         0.72877015124184    5.25336605336111   12.19350540032950
H         0.14849576925570    5.04927109928880   11.29757058892292
H         0.66729871981343    6.31531216360164   12.42235171853583
H         0.28218284973264    4.70643891120643   13.02324712462883
C         4.22283620855788    2.56660580596642    9.78496054221934
H         3.34044024433709    2.20495469017705    9.26515324317660
H         4.73366398643872    1.71474192349288   10.23306431233491
H         4.89212559743070    3.01781559460323    9.05261390520917

