58
CSD_code = JOHMOJ | q = 0 | S = 0 | Stoichiometry = C22H31ClOSi2Ti | MND = 12
Ti       12.64681287570910   13.79489341423924    8.29161821201015
Cl       11.33180272674066   14.65511587637883    9.92566821454918
Si       14.34353607954646   16.01106025993190   10.84616527574056
Si       12.06822301450736   11.04375556556325    5.90882793222336
O        11.43072561226990   14.02766072570608    7.09267646853633
C        14.14692367064798   15.39783935762320    9.07188942555697
C        14.93302241217150   14.41557909086093    8.43453982010311
H        15.72866810370491   13.85061887113441    8.90331815344564
C        14.64320456884801   14.42285814008768    7.05201292734975
H        15.16213607131803   13.85237957850291    6.29250879078042
C        13.72051432999690   15.46102824705315    6.81000530361769
H        13.36606543164230   15.78616477521278    5.83902356260515
C        13.38989451771440   16.03821351563054    8.04532636893120
H        12.75676448222880   16.90448806568284    8.18886706710661
C        16.14158699020507   16.65808030917372   10.98353156586435
H        16.33842678528713   17.44310377014359   10.26057452652247
H        16.86869450435800   15.86998796178808   10.81542266909690
H        16.32504595591743   17.06707709513424   11.97120896483712
C        14.12111567050620   14.59751099231166   12.11336114656294
H        14.86406205061063   13.81547718146127   11.98084438138484
H        13.13592559688825   14.14897917122989   12.02657767841981
H        14.22471191441106   14.97286349313475   13.12675669255468
C        13.13291808912367   17.44257706888413   11.18965058287589
H        13.30648310869324   18.28096658841086   10.52139440050067
H        13.24619771538603   17.80600178232497   12.20605839963145
H        12.10535218030553   17.11716353864304   11.06516283969948
C        12.52092947786795   11.57948643120199    7.65335488596186
C        13.82971558598806   11.70841830364303    8.18456414014628
H        14.74165730501472   11.52217531255144    7.63205143289489
C        13.74231136302523   11.91388742113415    9.57418218947498
H        14.57064473624899   11.95051774992678   10.26840145377801
C        12.38545957426505   11.92727155857040    9.92228366763978
H        11.98544279349655   11.99175853092516   10.92577578891104
C        11.62745396977071   11.73862957017915    8.74632505626229
H        10.55089277439215   11.61470459407007    8.70452680667200
C        13.10100728880069   12.05354530235734    4.64803287145366
H        14.12979333523570   11.70387403404315    4.62273342483683
H        13.11624483614461   13.11093198474159    4.90391668008039
H        12.70695189131554   11.95578900881051    3.64059993689903
C        12.53591298058511    9.20077323118157    5.70212517538382
H        13.59628228342214    9.03540169758412    5.86394918523415
H        12.29830231732705    8.85427837146191    4.70193269020028
H        11.99718330580992    8.57299433426596    6.40451558463653
C        10.18608591699894   11.23407669008316    5.64051539561158
H         9.64483404082723   10.42859874082533    6.12853700753860
H         9.92792529027116   11.20407744414708    4.58624796067475
H         9.81835856727846   12.17232607871710    6.04659213957400
C        10.69850107278813   14.90752596660131    6.41956912579025
C        10.08537006766028   15.98552983468902    7.07423597293433
H        10.19998285500420   16.08276491642464    8.14553462702980
C         9.32584783311286   16.89159542209196    6.36021126721260
H         8.85778260730861   17.71480395156983    6.87990210793286
C         9.16074647115932   16.75432971624320    4.99131254462911
H         8.56828229517432   17.46835851415235    4.43981635382856
C         9.75724330892834   15.68899440723768    4.33762361268096
H         9.62990171620087   15.56932565807317    3.27143693876669
C        10.51628602602420   14.77066369875554    5.03643914757339
H        10.97495165382041   13.93564708748450    4.52896345724698

