39
CSD_code = JOHMAV | q = 0 | S = 0 | Stoichiometry = C16H16I2N4Pd | MND = 4
I         2.57020929282936    4.97259874842040    4.16310480143258
I         4.62079413023528    5.59480756786354    7.32016483841823
Pd        4.37621600779164    6.61757631233473    4.96918945274347
N         6.06185861913370    8.75785058142781    4.23455207243847
N         5.60174807637578    9.13363539992922    6.30862001867819
N         5.06037433855464    7.12952614378647    2.97356101742011
N         6.64478875788723    8.59798489932929    1.99099243974273
C         5.43800050803719    8.23266578892693    5.33368234309939
C         6.34352535095752   10.19930836724327    5.84582858583061
H         6.57905909135214   11.03357691406888    6.47383295938200
C         6.64040883635567    9.96979649834538    4.54972467444329
H         7.18368781292092   10.53648523023309    3.82364839909524
C         5.93880620728316    8.14665448419124    3.00853919684319
C         6.50025373797761    7.96904431372576    0.83582597277377
H         7.08704369055365    8.35763459861158    0.01591637168708
C         5.64841716193851    6.88121661916790    0.69513510808824
H         5.53853485838793    6.36308544229454   -0.24157523887668
C         4.92559004496409    6.49388759120568    1.81213136872924
H         4.21479885207478    5.67578084562535    1.78147990138846
C         5.01542696759744    9.06025193889028    7.60376056821908
C         5.84005318283434    8.96093967869068    8.72250569746977
C         5.24362021460029    8.89389525256497    9.97203265952471
H         5.87166621899089    8.80087295146448   10.84518037610052
C         3.86557977266070    8.91339517251727   10.12014276732975
C         3.07098436161700    9.00278748317464    8.98456853561413
H         1.99649841142130    8.99786066849037    9.09028418956094
C         3.62169816179167    9.07396816541509    7.71614944189403
C         7.32911920230964    8.87498281646621    8.57842361456641
H         7.76656678503315    9.85406565105966    8.38096846776517
H         7.59763864899678    8.20821380892627    7.76056044529385
H         7.76838668534524    8.48625986707059    9.49236384927123
C         3.23207574729033    8.80266069105660   11.47030500091133
H         2.44909742648847    9.54939374373594   11.59090384846878
H         3.96867646387119    8.92892162877821   12.25933851060875
H         2.77675543521297    7.81867122104396   11.57751721127170
C         2.73459929044148    9.12053622383441    6.50660316403747
H         1.70951402424263    9.33342490880107    6.79817791912841
H         2.72798719001993    8.13341519775305    5.99161337548768
H         3.05954043361804    9.88256658353927    5.79484607412452

