74
CSD_code = JOHMEZ | q = 1 | S = 0 | Stoichiometry = C32H32ClN8Pt(1+) | MND = 4
Pt        4.39147231851873    8.49102306530580    5.50219695418845
Cl        5.25191038882646   10.20882216209032    4.29658044498902
N         4.96609093207433    6.05435975305350    6.79902529425604
N         2.82790809278541    6.14082067967665    7.01692373037695
N         6.15413547765861    7.44056841638564    5.41473375322019
N         7.23681985746232    5.63534926349140    6.50976466468466
N         1.55806635417317    9.43724410456934    5.28756016422315
N         2.71567018486994   10.72492282157486    6.57341658715495
N         2.32189702829177    7.85654993277425    3.78507649036167
N         0.06618058778375    8.57275395119183    3.75292183391353
C         3.86744614160899    6.81630236040069    6.50813225673633
C         3.26521794108049    4.98947841191323    7.63792490632484
H         2.58143068395370    4.32056608231270    8.11880888738700
C         4.60751568676175    4.93153077743512    7.50913560086413
H         5.33088198405421    4.21617787517328    7.83888275068669
C         6.18690071252400    6.37750200347798    6.23996071925358
C         8.37573891375949    5.96302606088540    5.91754955120439
H         9.22530393872764    5.34132270634230    6.15955541101043
C         8.45877719237078    7.04191223555319    5.04656592720091
H         9.38266212228003    7.30842346532577    4.56297330969019
C         7.30120559883195    7.77070540589351    4.82190113329639
H         7.27313984788139    8.63160972013327    4.16461608211906
C         1.45307249873163    6.39077783385820    6.72884607158215
C         0.69446925928546    7.27051153854116    7.49204366356809
C        -0.62783673638482    7.48861070665703    7.12491308878313
H        -1.21835481727778    8.17998850570500    7.70726463605549
C        -1.20599329169078    6.83166904224987    6.05084575097865
C        -0.43679867411237    5.91533096605064    5.34245847502784
H        -0.88305127591773    5.37054049794390    4.52352140985171
C         0.89026179922571    5.68422871477858    5.65938684109699
C         1.24256790835209    7.95383263101284    8.70492859487202
H         1.20845078198672    9.03385912093646    8.57630058621929
H         2.26416970210033    7.65143583441420    8.91137317254433
H         0.62824105021926    7.70793075844735    9.56950048890005
C        -2.61739436602573    7.11211728934951    5.64987613927958
H        -2.62951933817758    7.91283342580932    4.91056741012736
H        -3.20998018277143    7.43084307765050    6.50283047914252
H        -3.07868534581308    6.23476569433227    5.20475562611809
C         1.69998996198036    4.68546065695215    4.88908456002527
H         2.66564103921008    5.10012816170970    4.60291431567753
H         1.17122325918341    4.38105817853261    3.99024262039585
H         1.87983295546894    3.79482952967513    5.49152379213324
C         2.79976923223983    9.63169264123429    5.80511407440460
C         0.68998471242216   10.38863775913639    5.77807690248833
H        -0.34074634089232   10.40191044626789    5.49459607226769
C         1.41989347478493   11.19232583102635    6.57929204156425
H         1.13337475998238   12.04833496320516    7.15568633062777
C         1.29502618002765    8.56824447648590    4.23876836407961
C        -0.15841254928646    7.80987080798207    2.69565143632167
H        -1.16877756121960    7.82570187021173    2.31100590807026
C         0.84577423421765    7.05181438200419    2.11156437808255
H         0.66889806292722    6.45299787953849    1.23489725554723
C         2.09385752687770    7.10927254065596    2.71707048911370
H         2.93893876545158    6.55287868635296    2.33582163788965
C         3.82666632178478   11.48842652150355    7.05638578510041
C         4.13141448108394   12.67213415534709    6.37556890254153
C         5.20018667317552   13.43205140275213    6.82380993961819
H         5.44766121403041   14.34259359134168    6.29918838961265
C         5.96600858229519   13.04647928025849    7.91446615487869
C         5.64551643640513   11.86101837784572    8.56049586796139
H         6.23738185308390   11.54304375930993    9.40617462168655
C         4.58495782984564   11.06922103781357    8.14817722012809
C         3.36139446483431   13.09911324729743    5.16378470005663
H         2.34115618889366   13.38645169202674    5.41457462148726
H         3.32084092648999   12.28802959256155    4.43751716071639
H         3.84779676398577   13.94931769179082    4.69487237926450
C         7.10056688871870   13.89339179021381    8.39481583637352
H         7.48083065307927   14.52489982086069    7.59679176187239
H         7.91057270056835   13.27763464317570    8.77788905053189
H         6.76064582592647   14.53956158969602    9.20427608699191
C         4.26770304391096    9.79882436804505    8.87629622354392
H         3.31176014386616    9.88283659705188    9.39014157381593
H         5.03535215488421    9.58543249938755    9.61443608386422
H         4.21502818175910    8.96333263805453    8.17160857397866

