111
CSD_code = JOHNOJ | q = 0 | S = 0 | Stoichiometry = C39H66CrO3P2 | MND = 5
Cr        1.45905677136077    2.43788651885655    3.18414834872081
P         0.15240055055127    3.43362775492920    1.50277517735534
P         2.55301009586563    2.23309510708899    5.30578546541142
O         1.71662027661168   -0.27796462602260    1.99296631157046
O        -1.04513406610502    1.31097664100249    4.36994760685708
O         4.02801948883641    2.55493684509542    1.66417241815870
C         1.60713713754997    0.77370905002448    2.49121951456536
C        -0.10375632322789    1.86751234430253    3.96709162225926
C         3.05029532261138    2.65448490332149    2.28908427549262
C         0.78615906311930    3.93208023977831   -0.19276355295833
C         1.93864567308115    4.93265168828249   -0.11117058663857
C         2.51161205470808    5.22429241684189   -1.49721868680895
C         3.00127139992384    3.94022484481471   -2.15500794669499
C         1.84733756935633    2.95219123869891   -2.26938129674183
C         1.26168409957744    2.65754667001406   -0.89155162910239
C        -0.28979948027738    5.11923318035328    2.22976166344867
C        -1.55961295558394    5.12725411888974    3.08057572658995
C        -1.74409736687723    6.47634152726305    3.77603083704110
C        -0.54896875559713    6.80672301707721    4.66241811431869
C         0.72751973225005    6.81229574230677    3.82925912350256
C         0.91025778895258    5.47525860846953    3.11677674775791
C        -1.52621340362621    2.69949414990915    1.11833070396595
C        -2.34287400041395    3.36465171056786    0.01140767460318
C        -3.76656729493002    2.80867248830207    0.03272396542589
C        -3.75175630798122    1.29372633816697   -0.15403842501669
C        -2.88774462943728    0.62341095595262    0.91152530478475
C        -1.47012341060422    1.18998916212883    0.88000166649302
C         3.44871858031764    0.61613165048540    5.56770573598748
C         2.45590965724230   -0.54648045174980    5.57859179132015
C         3.18359207029456   -1.88641711303515    5.66958373582355
C         4.17214716021427   -2.04586067701253    4.52095597821852
C         5.18002437054968   -0.90313367446325    4.54581952714891
C         4.44827326500529    0.42953109364159    4.42610038324188
C         1.35930005304317    2.24020984287205    6.75920041359922
C         1.92497681112215    2.04082098774701    8.16390432150094
C         0.77731978185028    1.91004542272542    9.16569030304990
C        -0.10405437166962    3.15489705090062    9.13931586820287
C        -0.64379455677644    3.39469895312157    7.73276882673028
C         0.50391159453785    3.50718093147085    6.73270562857438
C         3.80608741899876    3.53212041673878    5.88448229088378
C         4.96042351041448    3.07104023216712    6.77544816970954
C         5.76421069959896    4.28215978645620    7.25027931017330
C         6.32085358495470    5.05899022212849    6.06177827344822
C         5.18774340221482    5.49540234165260    5.13879278970812
C         4.37665436045428    4.28557992284176    4.68166482068016
H         3.20176700887167    4.24998117394972    6.45881257763351
H         0.43247750155339    1.95779273742543   -0.99760774794573
H         1.60060340758038    5.87352020088613    0.32903608351146
H         3.98715472332805    0.64098814204555    6.52252174871671
H        -0.03466092128825    4.38880604864021   -0.76002938493895
H         1.10998064821843    4.38376623049288    6.98094333594524
H        -1.86042684754285    7.25803213858548    3.02078701110666
H         0.68980253724851    1.40007892308049    6.53232638590077
H        -1.02447388216077    0.96325042548251   -0.08912172064784
H         0.66967107702451    7.61092430070427    3.08469350320848
H         0.09481691225534    3.64509941013402    5.72607692483361
H         2.45312029544864   -2.69748679276894    5.64928850387063
H         1.59288912262566    7.01434327417647    4.46507582663925
H         3.90221336581614    0.45151925101805    3.48030630729067
H         2.73034775660290    4.51789987440590    0.51689423148017
H        -1.28891593677881    2.56244978085568    7.44267310016096
H         6.87574731480604    5.93174477866714    6.41239952411761
H        -2.43666915230043    4.93826026087346    2.46032219900434
H         1.07097680436078    3.37421808691980   -2.91414098595383
H        -2.05970980088709    2.82816884718281    2.06962885210350
H        -2.85883296987195   -0.45425939552430    0.74128994039959
H         1.77517341608612   -0.46113807382676    6.42751853848563
H        -0.46664163431837    6.05979453705662    5.45497352530561
H         0.17475622918112    1.03441115329076    8.91351300951226
H        -2.36619664277620    4.45006773125029    0.14128245815970
H        -0.39470713735200    5.86292129891019    1.42890478866230
H         3.56265714111599    4.61515822111128    4.02837588979164
H         0.48313878551348    4.02116991813565    9.45523178448002
H         1.02803061784561    4.67649128581983    3.87375770543800
H         3.79344040607904    3.50073078947029   -1.54604953815387
H         5.59411084585962    6.01858389033685    4.27065602717076
H         1.82262522794666    5.51192965860234    2.51601389276181
H         1.18019293042727    1.76091297273114   10.17005729837136
H        -1.89802066383792    3.14693590999666   -0.96156201785487
H        -1.49930303735868    4.33713044691745    3.83599307541057
H         2.01731352115896    2.17648332879993   -0.26422252086004
H         5.62367221219262    2.41127182536804    6.21456312122515
H         2.54425283001070    1.14352632000000    8.20861857038455
H        -0.93236331202024    3.04018883237265    9.84124866186923
H        -4.23767467542071    3.05109690296687    0.98860596352269
H         5.12165152065058    4.93790907546299    7.84398725655791
H        -1.24596843840459    4.30675434378874    7.71514861492458
H         5.16975186342814    1.24946897747678    4.41200015996059
H        -0.69196193917118    7.78080089599859    5.13472894979350
H         4.68637570674707   -3.00606819348123    4.59927311117359
H        -3.35110300620591    1.05751568333472   -1.14284106207787
H         3.41291586574951    4.15712808860616   -3.14294935237598
H         3.33387775734022    5.93783960216980   -1.40761372129529
H         7.01363923096937    4.42282823977335    5.50651152927940
H         5.01811950628079    3.62048673932458    4.09995622678522
H         6.58219606299627    3.94858553930428    7.89263162213527
H         3.72103611907149   -1.94422931244358    6.62084256241553
H         5.88720583879049   -1.00813700253317    3.72090622921602
H        -0.85389129878682    0.71798562357163    1.64806658273830
H        -4.35819357520672    3.27506708405161   -0.75872979699784
H        -2.65708245870382    6.45409997861497    4.37481343226918
H         4.59382755410678    2.52449244403890    7.64461511895626
H        -4.77139202529187    0.90572823908448   -0.10664720074652
H        -3.32370190117674    0.79367538892748    1.89832807863977
H         2.53803266394212    2.89920666984675    8.44564770270813
H         5.74699503392012   -0.93349582098948    5.48094152401129
H         1.73913465346391    5.68134540100201   -2.12191972731063
H         1.86202256551333   -0.51055615859064    4.66117111707037
H         3.62990523289260   -2.02492516604439    3.57421071172470
H         4.53412674847534    6.19150661692704    5.67221918293016
H         2.19226827213094    2.02240279962515   -2.72561361721771

