35
CSD_code = JOHQAA | q = -1 | S = 0 | Stoichiometry = C16H10Br2CoN2O4(1-) | MND = 4
C         4.40397436185439    8.28520522751633   11.80868431623566
C         3.16625390094137    7.63040344287742   11.66183898808191
H         2.68719423929673    7.23980572877723   12.54714983185866
C         2.56507953243848    7.51055671190176   10.42981864513286
H         1.60737007847610    7.02016048441408   10.33157236680817
C         3.20709096016195    8.02384405984596    9.31254740661017
C         4.42803526346959    8.65125151411866    9.41211815727261
H         4.94529053297825    9.04770368690434    8.55015981946146
C         5.03199544161382    8.79641937180874   10.65405048215209
C         6.37288873816072    9.43527725228602   10.71797259701158
C         8.26496122052035   10.11204798493521   11.93854325899028
H         8.22352400158885   11.20417966738609   11.83343622195279
H         8.80480810400735    9.71215325096817   11.07314301445743
C         8.91647336872336    9.72288831096147   13.24912639751224
H         9.34189957727269    8.71253092390983   13.18748373738650
H         9.72236854982826   10.40959888408626   13.53077875131458
C         8.36458545342028    9.88492516630490   15.52884060804727
C         7.35485808693290   10.02251816950527   16.61139084239289
C         7.80186980612481   10.13958679438609   17.92084605177114
H         8.86654129750137   10.08594882514936   18.09709043520321
C         6.89550511806725   10.31367253030172   18.94186260719539
C         5.53343027831831   10.39436788216466   18.69312518153204
H         4.83727841616254   10.53134976576426   19.50787538215182
C         5.08278912273323   10.30051312752783   17.39622857929227
H         4.02747762230404   10.35871225977418   17.17586591873111
C         5.97593729735236   10.10012627521416   16.32653350146552
N         6.90872207110577    9.57794165039515   11.94406646342306
N         7.88530464101214    9.74849194928219   14.27905256700038
O         5.50972283409241   10.02977665725872   15.10815741291110
O         4.94815123397748    8.36725586889416   12.99346478002390
O         9.56880185300676    9.94824809503323   15.79228209856373
O         6.95697018721694    9.75659034900529    9.67912829571058
Co        6.16203103158263    9.39772570977474   13.64675300638364
Br        2.36765712512672    7.85095385181451    7.60804102843124
Br        7.51185865262995   10.44776856975167   20.74257124752999

