59
CSD_code = JOHQUV | q = 0 | S = 0 | Stoichiometry = C29H21NO5PReS | MND = 6
Re        0.71526559243191    1.64868620858843    4.31923574312749
S         2.34157843769281    0.84495601836925    2.55878830250561
P        -0.87815973879340    2.66317584984640    1.64645038999547
O         2.58255233138216    5.01328929918194    2.33206141119190
O        -0.70017416441248    1.47753895417476    2.54248448398660
O        -0.14320574372638   -1.21086854283343    5.11737534867330
O         2.94715865255746    1.79257011499675    6.44561387764499
O        -1.44224539600227    3.01247486370501    6.06320526234768
N         1.22317895102084    3.51499823602412    3.36757954097367
C         0.18849649516695    4.46364418966664    3.33310376441360
C        -0.95394397877230    4.21156894852330    2.56505591985418
C        -2.02047072301376    5.09805229967693    2.55001038627805
H        -2.89459632040820    4.87486922143208    1.95352479733264
C        -1.94506779223158    6.26037971308623    3.29254303128336
H        -2.76900300356752    6.95801218081691    3.28759144810354
C        -0.80581078442496    6.53274006634941    4.03856536417876
H        -0.74783411198519    7.44731919944317    4.61009634229062
C         0.25401369411661    5.64910844169490    4.06383040783937
H         1.13824121748010    5.85809570670692    4.64697602861109
C         3.63932340330969    3.14035901688936    3.27748223821248
C         3.76125511819918    1.75660293701071    3.15187089953661
C         4.96401178566794    1.12804162717777    3.43017189658434
H         5.07328322884583    0.06244014939080    3.30990625986529
C         6.04466374449124    1.86929394481164    3.87581668896594
H         6.97230231655324    1.36658237820635    4.10452233936983
C         5.93666978011718    3.24107641933070    4.01595937971647
H         6.77939494513149    3.82153290547322    4.35862137515271
C         4.74507818203988    3.86712128693832    3.70317022917266
H         4.64633865268918    4.93961677159815    3.77686099601306
C         2.41868055945344    3.96252396389544    2.94884612180323
C         2.75561125522287   -0.88965556762555    2.93125049383261
H         3.52107412872987   -1.23578466197678    2.24180297970248
H         3.07168238659493   -0.99045868124450    3.96523852715486
H         1.84005710125932   -1.45137856919991    2.76850996440323
C        -2.41459373563223    2.48364378349143    0.71114453252452
C        -2.65506270734621    3.28264231945098   -0.39940956888653
H        -1.90975041142268    4.00165140676509   -0.71200536174892
C        -3.84324714704201    3.14735054322324   -1.09271382663855
H        -4.03730679499252    3.76583569942037   -1.95668813053104
C        -4.78491294217229    2.21682362622591   -0.67916749709327
H        -5.71149834176003    2.11335298550729   -1.22427354004081
C        -4.54201707739606    1.41973491856659    0.42758757194101
H        -5.27793773869171    0.69634834088336    0.74603244268330
C        -3.35511853943548    1.55294739975281    1.12632561924514
H        -3.14378198095178    0.94247952618111    1.99273620671167
C         0.44033954383333    2.81376912451029    0.40735675805901
C         0.88335334467984    1.63513550464398   -0.18224482719553
H         0.42561743152208    0.69702594486167    0.10676721395943
C         1.90426700275426    1.67161190544161   -1.11214340777560
H         2.25564371906767    0.75665653527812   -1.56711011594251
C         2.47944519382250    2.88628504437392   -1.45353836341756
H         3.28664827248671    2.91493269352925   -2.17082490106780
C         2.02424525534906    4.06171509760646   -0.87981335873048
H         2.47583381723316    5.00578803204664   -1.14317228571200
C         0.99781731603007    4.03261838636579    0.04793257924576
H         0.65349635419038    4.94686891893612    0.50848154069121
C         0.17084559057488   -0.14086870846499    4.85777106255251
C         2.08510845615579    1.74717659431114    5.68631409136042
C        -0.62423408366881    2.48274948695867    5.46193332568629

