61
CSD_code = JOHQOO | q = 0 | S = 0 | Stoichiometry = C30H28Cl2Zr | MND = 12
Zr       10.80680205873259    6.59668175527315    9.08685845493402
Cl       11.59814586389323    7.71099397059709   10.97528869603483
Cl       10.96631898295586    8.60640367988832    7.91572476705713
C        11.11161879576097    4.69675082093234    6.19801944004092
H        10.42330049074178    3.86760426270536    6.09337936715295
C        11.43701165251893    5.46304647665590    5.10564364628693
H        10.97260948785322    5.25519497396817    4.15295038583087
C        12.37418558852290    6.50469580629096    5.18782231100942
H        12.59963244946152    7.07845171618743    4.30262063236384
C        13.01895583673072    6.78391868230737    6.37029904186888
H        13.76416165421478    7.56575555622644    6.42263991367770
C        12.71276450790067    6.02710193536304    7.50941995391821
C        11.72804696681193    4.96494522763838    7.44081068100466
C        11.63691710821088    4.33317861653929    8.72234154212827
C        12.59624053714858    4.96356401095834    9.57782192218886
C        13.25663309010147    6.02435289154745    8.84356355597565
C        14.26942348866510    6.77813261059861    9.45193778476469
H        14.76607741956463    7.56644875956833    8.90171664826447
C        14.62603625481579    6.48887220253291   10.74850356223964
H        15.40534954456791    7.05814730451350   11.23100935726895
C        13.99048797080229    5.46293146514821   11.46535503200753
H        14.30297541060398    5.26879686644798   12.48060547739522
C        12.98776069418625    4.70748828108577   10.90938204018113
H        12.52497639357136    3.90674983699308   11.47194021302913
C        10.78088901114512    3.14619511626502    9.08183878623422
H        11.39549856217577    2.35318267544749    9.51946296788510
H        10.32879379883012    2.74378142505916    8.17198374346545
C         9.66413370941779    3.53545625754669   10.08295845490740
H         8.86749982591729    2.78441855756305   10.04823523171650
H        10.06583570490704    3.54340876969110   11.10006922819753
C         9.13611834053812    4.90590059815934    9.75829721144157
C         8.76382717749479    5.35743211877452    8.46801022401857
H         8.64000662944341    4.71492925361943    7.60540659429961
C         8.43645979844085    6.73508937000018    8.50917928454206
C         8.54449959176006    7.14948168339860    9.87914300548449
C         8.97763215449588    6.00286276379585   10.65869362778424
C         9.10698513209833    6.12368851313060   12.05801009575579
H         9.40534026362558    5.27247760470483   12.65647300164798
C         8.82786145059967    7.32848588713249   12.64831671238410
H         8.91458139390859    7.43303724249791   13.71916044216024
C         8.43719003123921    8.44769893886477   11.88906198649115
H         8.24282968085978    9.37819440022333   12.40068199051075
C         8.29879817297411    8.37760476088589   10.52672407554581
H         7.98443159051488    9.24149593399731    9.95513995754713
C         7.88535092440665    7.55982577605592    7.37696642521852
H         8.12247792401582    8.61488380749662    7.56546850778125
C         8.50681264598221    7.16868476557173    6.03149241159715
H         8.26105486638604    6.12983994575461    5.79678132126203
H         9.59762701550302    7.26796563523706    6.09055598569899
C         7.95913020397071    8.06318511875089    4.92286782793710
H         8.23394073284023    9.09907688749860    5.12925060685281
H         8.40580038969615    7.78335074253624    3.96673955745834
C         6.43965153233095    7.94105734576473    4.84297922305237
H         6.05363583173080    8.59812546028598    4.06135290307449
H         6.17232583552175    6.91503457188382    4.57826699680947
C         5.80150805227211    8.29897391162554    6.18215194876140
H         4.71768424651287    8.17961897735362    6.12199773411213
H         6.01043470042069    9.34585112755530    6.41235408583826
C         6.35715286199786    7.41779474787319    7.29675582576922
H         6.10382864499051    6.37286521390256    7.10266192010332
H         5.91303932269653    7.69703638411573    8.25435567001891

