26
CSD_code = JOHSII | q = 0 | S = 0 | Stoichiometry = C9H10ClO4ReS | MND = 6
Re        8.69193776372003    1.32454790192154   14.96201710636843
Cl        6.96777471571717   -0.06440252704306   14.06635248380826
S         8.30573652973741    2.76774678527197   12.67946453737538
O         8.96429394608476   -0.45311992394444   17.48652719647906
O        10.87521550088140    3.37362313239926   15.74859151466696
O        10.31423158070961   -0.56769475760277   13.13423385193153
O         6.15068286171803    2.78306438350733   15.94579174087241
C         8.07295561107688    1.58469363313469   11.30032246108650
C         6.66473445052094    2.12554213657684   10.99571533567822
C         6.50378805172050    2.82826486700990   12.35537429800988
C         5.63586016227682    1.03193863070832   10.75365745055891
C         6.69260642159254    3.13145578009146    9.85206590926379
C         8.89304342643429    0.22498856462435   16.57019550722466
C        10.07341458231828    2.60472390420309   15.47996967985249
C         9.83659205254014    0.15453221609190   13.86726791369695
C         7.15055785948568    2.31669780760259   15.68178986736217
H         8.82436098079613    1.70492543167170   10.52355450238062
H         8.05641571121615    0.56205996715138   11.67205302921582
H         5.96472229008612    2.21958904238508   13.07879370177286
H         6.12201930865052    3.84633321886129   12.34050600897197
H         4.64170832989923    1.46337592297657   10.66037727989559
H         5.86787889243057    0.49200709870733    9.83828979649246
H         5.63178416013224    0.32621592314908   11.58164095512010
H         5.71800030863433    3.60148885425681    9.73992928510420
H         7.43252358994301    3.90733611947565   10.04099639808286
H         6.94296091167939    2.63336588681274    8.91792218872700

