51
CSD_code = JOHSUX | q = 0 | S = 0 | Stoichiometry = C25H16ClN4O4Re | MND = 6
C         4.61189186043655    8.79115858218739    0.40598208392642
Re        4.24500206069547    8.02818052939248    3.23857395071791
Cl        4.98419476100373    5.98551847411228    2.25914893348927
N         2.41536656881746    8.37712304048576    0.81801525961857
C         1.66078889538865    7.34069095215089    0.85868332750104
H         2.09679887459552    6.38098013602650    1.13141199972726
O         0.46384414701086    9.61568237912001   -0.38762815251762
H         1.37115934315186    9.48332637624354   -0.03321420413929
N         6.04884394863528    8.72973604489680    2.29116777457864
N         3.29276771420529    8.49973512418833   -1.54836499703434
N         3.67345751292020    8.40635571915933    1.22918072777203
C         5.95824463459231    8.83492553696072    0.94992540420646
C         4.29974989347691    9.16034103698902   -0.98026839897242
C         2.91318092129991    8.82955656179764   -2.76610776183635
H         2.08920336001530    8.25298786370684   -3.16496782255048
C         3.51205232061270    9.84358900263528   -3.49827532350772
H         3.17570210860388   10.07567377919342   -4.49596312589536
C         4.53894370421411   10.55987620073100   -2.90114373396499
H         5.01443886212189   11.37782120979352   -3.42238762649140
C         4.94101869339964   10.22443978750316   -1.62086770303831
H         5.70452930213117   10.79498585726664   -1.11472146376853
C         0.28253406575789    7.37314819103152    0.47139334134674
C        -0.24095871811613    8.49914490272292   -0.17849550266120
C        -1.55853103791540    8.48572844499327   -0.67913263169030
H        -1.90591571574501    9.37137280292720   -1.18771092863214
C        -2.35042138535781    7.39067671819246   -0.51802421786272
H        -3.35884357941064    7.38599893017538   -0.90548784362387
C        -1.88359102993416    6.24631307536718    0.16732949978715
C        -0.55915182823257    6.22965807506970    0.67875602064423
C        -0.15133636746506    5.09019350097876    1.39878786929657
H         0.82889918817213    5.04734534434332    1.84451730096234
C        -0.99156948701799    4.02155405068176    1.57367366458852
H        -0.65305338926727    3.16159304948477    2.13193512937685
C        -2.28665183781637    4.03345232238997    1.04496372959753
H        -2.93450163536927    3.18219118937727    1.19043178229951
C        -2.72338924271020    5.13205415882731    0.35783456958950
H        -3.72530847412018    5.16760610154170   -0.04540031592104
C         7.09982215889629    8.88413030476801    0.14568356197140
H         6.99992755544056    8.87514465221967   -0.92796936773943
C         8.34588835994263    8.89162630234030    0.73876382339768
H         9.23959756677020    8.91645398981815    0.13409898858714
C         8.42449150728910    8.85597969951382    2.12451658081587
H         9.37502844091794    8.87189186950691    2.63216908718212
C         7.25260435796997    8.75885962886412    2.85203609833615
H         7.28052970601201    8.69288985662154    3.93210855599490
C         2.57142242503402    7.19132654667148    3.78472003502440
O         1.59904551358761    6.64278147456788    4.04002846843572
C         5.06802139393957    7.51751857980262    4.93253506248797
O         5.62342704908702    7.16071411383331    5.86658334550494
C         3.70218935316149    9.78406020543456    3.86994120299553
O         3.38501559919466   10.83360772340423    4.21153394206476

