58
CSD_code = JOHXOV | q = 0 | S = 0 | Stoichiometry = C21H30BCl2N2PPt | MND = 4
Pt       -0.30305284214566    3.73227549060467    2.61020270004971
Cl       -1.62687364310431    2.77468212940395    4.27424531573293
Cl        0.82433943339041    4.73945677061443    0.82468644640541
P         0.68689137892393    1.72162909041463    2.21775679830802
N        -1.24741762172654    5.47374517604823    2.94338452151559
N         2.46167738049169    4.12548186885802    6.18586443101462
B         0.36684068444317    5.50655646313441    4.79580339413837
C        -2.26626973178958    5.88986615849494    2.19167278129613
C        -2.88763903213876    7.10324448256888    2.45489828592034
H        -3.70624035173392    7.43116472392357    1.83310292237597
C        -2.44585693069467    7.87431754389944    3.51720942825880
H        -2.91697390673658    8.82132806210061    3.73732745804410
C        -1.40250040726238    7.40510552725388    4.29495240730783
H        -1.03825902115432    7.97174619737593    5.13819608722221
C        -0.80561442632961    6.18501271947838    3.98815926711503
C        -2.69229111588432    5.00292532597155    1.06775707761784
H        -2.74801098073925    3.96775439906181    1.41721901312051
H        -1.95010351145966    5.05245835224777    0.26884750921368
H        -3.65855440502160    5.30414457534646    0.67128504131301
C         1.71742487078944    5.22519518859587    4.17891367200041
H         2.02950614440564    5.55402405472688    3.19710988164347
C         2.64997931793265    4.56665623663593    4.91767873739870
H         3.63403997909830    4.35417111200219    4.51671140239419
C         1.26896348001703    4.31186968268985    6.85785372968741
C         0.20090560393998    4.99867890559348    6.23356009378751
C        -0.99297381932451    5.15166473602462    6.95543371900383
H        -1.81522903690030    5.66076167521914    6.47452984711688
C        -1.14395667044309    4.66526864824523    8.22998447918253
H        -2.07509119331748    4.79070001988614    8.76185392506284
C        -0.08284030806763    3.99559525151998    8.83246331473206
H        -0.19115472087105    3.60392315185791    9.83364118242020
C         1.10422765619100    3.81953322027622    8.16241537628140
H         1.89902948181592    3.28915851711955    8.66122063642903
C         3.54595912691192    3.42605637189211    6.83839613850212
H         4.40258397786655    3.37778208087274    6.16907898708298
H         3.25120388296758    2.40612676060312    7.09430691575924
H         3.85165971802314    3.94807775364020    7.74790427048475
C         0.78018941955164    0.51749340140637    3.60726595070024
H        -0.25152986627654    0.30782300402472    3.89826709281040
H         1.23745129786576   -0.41116193423321    3.25581347425550
C         1.53178349457069    1.09532043347956    4.79761648747425
H         1.53907885444818    0.38743972171281    5.62486167349304
H         1.03039075418309    2.00475489242790    5.12394309388519
H         2.56054744694368    1.33335120976412    4.53266664158701
C         2.40570394260225    1.82156218916366    1.55810584254300
H         2.34298484989145    2.45323890900095    0.66880087559734
H         2.98475646383416    2.38227329202780    2.29751809324421
C         3.08937786029573    0.50059708723277    1.23371001884848
H         4.07378614570260    0.69267131775610    0.81023186451381
H         2.51777528791121   -0.06950774399025    0.50548900799982
H         3.22119358986368   -0.10872716503459    2.12500317278629
C        -0.25298355354217    0.73354060907868    0.97950160080311
H         0.19083253739699   -0.26082281942995    0.87842680210264
H        -1.25634438059926    0.61434056729947    1.40053420706417
C        -0.33320041721136    1.44637065187370   -0.36500422123859
H        -1.05711695129570    0.96126005058616   -1.01680377454452
H         0.63284629992982    1.44771603930601   -0.86429355989220
H        -0.63465151639594    2.48282786241596   -0.21638153896329

