50
CSD_code = JOHZEM | q = 1 | S = 0 | Stoichiometry = C17H27IrN5(1+) | MND = 6
Ir        5.59885310972851    3.40964121221644    4.69840529218874
N         6.44362099088714    2.65184320119644    1.80592741025336
N         8.04998408647342    2.34399258322881    3.19290635966922
N         3.58497766353355    1.09540589182053    4.47274334441477
N         4.40640085235960   -0.54966386842914    5.64515130470576
N         5.24745153597492    0.49785557249113    5.64862020488432
C         5.11907886408746    3.91436979052768    6.74919430596592
H         4.97055452214613    3.00671836182161    7.33268347538651
C         4.06390382024763    4.33825924257205    5.95764091458381
H         3.17140285841683    3.71677995544557    5.95839314917058
C         3.81049837099232    5.78296592426451    5.59468551703974
H         4.16386017327771    6.42013561964504    6.40498011069479
H         2.73494428676055    5.94384601239628    5.50855404773187
C         4.47381986766665    6.18729973887905    4.26541560452886
H         3.77646956059161    6.00016128283118    3.44541618799564
H         4.67877344261866    7.26203241002034    4.26574147949975
C         5.75361523872251    5.44485104128357    3.97483669579248
H         6.01251103450436    5.44239796662237    2.91706513153007
C         6.78199339195799    5.24209228040065    4.87985474867953
H         7.77199826126268    5.06634766674927    4.46658673573977
C         6.78584403132172    5.79170653235380    6.28704470351717
H         6.23444632514914    6.73150652449153    6.30387863677295
H         7.81274224410116    6.01907576227815    6.57638504746985
C         6.19668639004148    4.80554336279581    7.31207000139872
H         6.99745302353761    4.17116687737089    7.69948552040380
H         5.79098288286411    5.35673250310634    8.16575000291593
C         6.75756433661999    2.73258261475056    3.11812944847968
C         7.51736105173696    2.21501739812040    1.07791138474214
H         7.47687042963910    2.08313115549396    0.01692719461594
C         8.53021858312000    2.02146155940211    1.95268229992479
H         9.53486423169626    1.68967193825077    1.79335708718679
C         5.17466297436922    2.98414815743858    1.21880399526933
H         4.54227754714901    3.43512240405852    1.98026989356212
H         4.69076414270551    2.08937211812681    0.82342641853889
H         5.31409979033075    3.69169036643157    0.40085672533074
C         8.84971669900984    2.29195888286521    4.38629650779437
H         8.25595207705539    2.65290949423143    5.22352817720139
H         9.73344877323781    2.92135994382855    4.27333625464535
H         9.17761258290746    1.27020046145284    4.58232458967707
C         4.78923246491832    1.54048831336672    4.93534579204517
C         3.40142046998388   -0.17455208226514    4.92850403658146
H         2.53982723519390   -0.77549911847791    4.72582971311325
C         2.64704229746094    1.81886426103147    3.65866670891568
H         2.93915721315191    2.86639627048498    3.62909447516866
H         1.64641332335719    1.73453983850205    4.08260669481253
H         2.63106950732821    1.41546004375390    2.64498711103470
C         6.48066264237643    0.38336569115868    6.37263995396639
H         6.81199345238168    1.36819712958468    6.69134905836321
H         7.24588632763701   -0.07999468577390    5.74842324357086
H         6.30951501740746   -0.25325560420635    7.23888730252517

