91
CSD_code = JOHZUC | q = 0 | S = 0 | Stoichiometry = C28H57ClN2P2Pd | MND = 4
Pd        3.47634555544484    2.26762298866177    6.26704161008987
Cl        3.84878847376947    0.06731392356657    6.84195605619417
P         5.63572537180888    2.51468318573671    5.68020684762957
P         1.23648840912827    2.16589436742541    6.62429591025080
N         3.35112679500778    4.29283716390758    5.83123301254997
N         2.63286245485587    5.13998018695326    6.57755403307743
C         5.53789601980536    4.11609494029781    4.92815494917495
C         4.40697933011504    4.83748310148808    5.15074875777818
C         1.44563852519587    4.98069372258688    7.01151667468513
C         0.50835438933078    3.85980228139908    6.61355329002793
C         4.31049514896096    6.26773667638629    4.60828899760304
C         5.22191583494537    6.47679624404138    3.38990137979263
C         4.75834098374936    7.22064247212087    5.72257235102664
C         2.88422465934131    6.59441831488232    4.15004442104863
C         0.85009517393239    6.12346817756302    7.82902805439862
C         1.87369999466384    7.24225025821561    8.03584527756770
C        -0.35641977094368    6.70672900703359    7.07618878023832
C         0.39866033648216    5.64895785709843    9.21591767361128
C         6.76371835565562    2.73303527105448    7.18174116624774
C         7.05925851931665    1.40138837275874    7.86744682079266
C         8.05230843183536    3.47991290769658    6.85533423422996
C         5.87855437405726    3.57821835477614    8.10970708644916
C         6.27977561717072    1.39427123989695    4.31007462597322
C         5.02151991371940    1.20728675535580    3.45178249286333
C         6.74648155215477    0.03861290587877    4.83271743695496
C         7.38708109456783    2.04211066398899    3.48082608616388
C         0.41500765795199    1.37373328580138    5.11421274454906
C         0.83622254893625   -0.09249299872495    5.00563723389055
C         1.03814977091056    2.11378973336797    3.91968285220393
C        -1.10708887516170    1.48352330281805    5.09443433616049
C         0.69855543484540    1.45400428332570    8.29062232128603
C         1.78462544344646    2.02254598316385    9.21553443738952
C        -0.69088361166121    1.87759876501968    8.77058586797341
C         0.76890621399928   -0.07238205377347    8.30994579777919
H         6.36194692042516    4.49589331754386    4.35210779024368
H        -0.40479145685750    3.88132436273483    7.20336836722278
H         0.24568528363931    4.05502733883000    5.56805641119198
H         5.02252239354309    7.45600328499535    2.95851477758468
H         6.27432939339547    6.44959548118552    3.65983764500718
H         5.03223005493406    5.72341463269953    2.62834865705969
H         4.61141026958898    8.25559630663583    5.42016615751459
H         5.81449141324237    7.06989659050744    5.93909120678272
H         4.19017447693229    7.02884242738901    6.62557332335156
H         2.85766950740690    7.58601745193110    3.70193348545487
H         2.18941716345862    6.57738166840184    4.98187462455310
H         2.55734361249279    5.86996493590472    3.40565548695383
H         1.45445317690194    8.01139160626257    8.68128812209905
H         2.77281877103275    6.84945348249010    8.50215892013807
H         2.13981947728923    7.69871757639664    7.08825829241378
H        -0.73244463701935    7.58000758534736    7.60490030276948
H        -0.06670638856246    7.01406588761177    6.07342485983621
H        -1.16859420491151    5.98826710617816    6.99443804203763
H         0.02312986193637    6.49540169015321    9.78746857606423
H         1.23360056626783    5.21550866464473    9.76183313237728
H        -0.40115462733091    4.91627521638325    9.15485451785670
H         7.43062323875431    1.58021956485181    8.87653734683231
H         7.81267125251664    0.83293469660783    7.32974986651182
H         6.15395431936825    0.79939014194859    7.93804772300337
H         8.58672341707785    3.71543747441307    7.77545692445566
H         7.83673696136954    4.41241219910651    6.33702362102942
H         8.70820670318354    2.87536301231548    6.23219739052540
H         6.37728579970998    3.75160292151375    9.06274506960821
H         5.65399533661138    4.54465267364552    7.65593696196466
H         4.92711473060119    3.05372441926542    8.30777940863757
H         5.24312885960204    0.61937171339620    2.56204608220978
H         4.25251357908219    0.68181022117369    4.02995736378989
H         4.63040961468513    2.17974243303093    3.13752490112835
H         6.82339314279235   -0.66619220271396    4.00487687658180
H         7.72566718051354    0.11451746335477    5.29910187225135
H         6.03814622361876   -0.36134007491574    5.55498651782503
H         7.74377873151498    1.32973991757375    2.73719354284274
H         8.23104240253460    2.33042547771800    4.10337465367281
H         7.02421183227062    2.92168808494666    2.95496267295707
H         0.60699215604658   -0.47058162202906    4.00969752470947
H         0.31695764259392   -0.71676245995273    5.72530895130477
H         1.90941519782808   -0.19427472858878    5.17152626330297
H         0.81861166618042    1.58268113536458    2.99439446354039
H         0.65870225987077    3.12888785201923    3.81358236938880
H         2.13342590966291    2.16126818960423    4.04074505463534
H        -1.48677018142865    1.09842266179654    4.14834805921798
H        -1.54731476782125    0.89180675465986    5.89418966002011
H        -1.44359760981884    2.51341051881516    5.19662065774375
H         1.57040804892134    1.78808130254503   10.25726422199951
H         1.85232864987774    3.10866482743638    9.11003731302759
H         2.75584085120353    1.58526351687407    8.95692798939058
H        -0.96452422168471    1.27007531071758    9.63259295775596
H        -0.71327569460099    2.91530588575946    9.08986425798375
H        -1.44621453738183    1.72595169297409    8.00229959992891
H         0.77416101390635   -0.41859427855213    9.34329348201049
H         1.67714905962961   -0.43044013876081    7.83160615765132
H        -0.09635992391005   -0.50977481389194    7.81691590438520

