65
CSD_code = JOHZOW | q = 0 | S = 0 | Stoichiometry = C33H26ClN2OPPd | MND = 4
Pd        0.76922426616692    5.27567243838141   20.66215139118551
Cl        2.33706378593466    6.46240103888103   21.87608498408455
P        -0.62615279315728    5.69203184856765   22.34335574586993
O         2.66559340129812    3.64655948740434   14.71368367141327
N         1.96209766869207    4.88323400175875   19.03401170867971
N         1.74402233091224    3.77555677229393   15.72225376348032
C        -0.60390949515232    4.36590772407052   19.48960136109478
C        -1.93447563071821    4.03048313759668   19.72444816349174
H        -2.36899164438541    4.17043468335761   20.70884168017828
C        -2.73701454798496    3.50114856208814   18.72595428282258
H        -3.76575426335145    3.25068959610696   18.94554924862946
C        -2.23471558542861    3.29155982107620   17.44799496563975
H        -2.87249035701099    2.88752828087239   16.67524459115984
C        -0.91891069751268    3.59382359530807   17.17475882320393
H        -0.49586555352660    3.43369542508978   16.19564439479415
C        -0.10802419024541    4.12062760678312   18.18509362282170
C         1.28542371276558    4.41285408878725   18.00907595687281
C         2.16509856785511    4.22557920174458   16.84396948051073
C         3.47657788456068    4.64603906602822   17.31642126124079
C         4.72192937889892    4.70478622575322   16.72335582166272
H         4.85781974632375    4.41093613366089   15.69423662188537
C         5.79093291621118    5.15138331027636   17.49232604721055
H         6.77466011449612    5.20619715988455   17.04986476172943
C         5.61248383713546    5.52435323114431   18.81511170910947
H         6.46121358652151    5.86578570659918   19.38910323584899
C         4.36427004575942    5.46950297619427   19.42544281900103
H         4.22374668709087    5.76499391747480   20.45438247279805
C         3.29819984633093    5.03370199199156   18.66267325086128
C         2.06073238915540    3.13493219001337   13.54376951938983
H         2.86060896756961    3.06844382815825   12.80959567726793
H         1.27641059683741    3.80567556131250   13.18429685746568
H         1.63492627623639    2.14498198459424   13.72539850852838
C        -1.17987760961344    4.19013976697003   23.21017155385459
C        -0.70060289055410    2.97473152363875   22.72879915002353
H        -0.04242119435693    2.97739941655787   21.85502126368558
C        -1.04701161494121    1.79296158448441   23.35797107050843
H        -0.67486529503203    0.85094575407715   22.98338227314913
C        -1.86786293103911    1.82092223749485   24.47425801539343
H        -2.14219520514972    0.89913210002640   24.96554041139199
C        -2.32256242943990    3.03105457594808   24.97432442883127
H        -2.94431334784713    3.05036110308240   25.85751496332963
C        -1.97329359250795    4.21643461805335   24.35270230343012
H        -2.29572847235869    5.16274673058528   24.76513464764638
C        -0.15356396574179    6.73967574111268   23.75351890179987
C         0.70551607698616    6.19306821463506   24.70405951404244
H         1.04593316282902    5.17212824063122   24.58590896553680
C         1.13322178690101    6.95734355976744   25.77118962522441
H         1.80422498857053    6.53301419941575   26.50338072549658
C         0.71108647221864    8.27226342867267   25.89531842134117
H         1.04953307318215    8.87139457147489   26.72789830821024
C        -0.13387832327146    8.82142416261876   24.94658731853387
H        -0.45485188227876    9.84907750332095   25.03724733969799
C        -0.56431462347763    8.06145494038307   23.87252074061946
H        -1.21409381190875    8.49683756293216   23.12568620374656
C        -2.07250608866615    6.57774887209882   21.67155279749315
C        -3.36011296729195    6.54919781719455   22.18956758164023
H        -3.58516403105219    5.94488674744124   23.05583316711206
C        -4.36267217151152    7.28301833524502   21.57810708848673
H        -5.36615259059711    7.25501374576035   21.97719843607436
C        -4.08469844663386    8.04992098606496   20.45896006122661
H        -4.87150106695521    8.62036072257579   19.98804475753341
C        -2.80002897263134    8.08149873533600   19.93784422937582
H        -2.58566455249803    8.67565794356726   19.06190855170914
C        -1.79838036324522    7.34351815531241   20.53880678244898
H        -0.77892836837507    7.34436581025357   20.13354400147526

