57
CSD_code = JOJBIU | q = 0 | S = 0 | Stoichiometry = C22H28CrO6 | MND = 6
Cr        7.33574560675568    4.44775372142585    2.21970759028224
O         4.94649317623487    4.99241939443363    3.62357178335035
O         6.17753365099590    4.73465771253305   -0.54984356361240
O         9.66877701148675    6.24786010329878    1.63635095179510
O         9.40788685333160    2.49405999703129    1.25121985103901
O         8.20756420508227    4.07903342103696    5.08490505322426
O         5.77890868754497    1.88606528691893    2.45994216897904
C         5.80387900739362    5.71096936353257    2.88270633085262
C         5.43338622537860    7.06356245193192    2.65800872039319
C         4.24021041552024    7.57850177716404    3.14949491201271
C         3.36411231068870    6.72514502044407    3.87846214172128
C         3.78711111699695    5.44263392318216    4.10737179307900
C         6.41169785663685    7.92704295121758    1.91132166275026
H         5.90531132205960    8.70207648354437    1.33807656779191
H         6.96970684033112    7.30348203201138    1.21085463669179
C         7.39982707700841    8.57456978565770    2.89146791408486
H         6.85458650960684    9.18952396810492    3.61236474484040
H         7.90706879950245    7.78344805894288    3.44881712652414
C         8.42695766036597    9.42985800274030    2.16258000988069
H         9.10780969725077    9.89343020243623    2.87221295929267
H         7.93831254280415   10.21658300145519    1.59087810940039
H         9.00988269499951    8.81899085772496    1.47866928722442
C         3.82922851496620    8.99619183512127    2.87070194904790
H         4.70576990961949    9.63917118530049    2.81110051024364
H         3.20481369836763    9.37778939770263    3.67745511331736
C         3.05211514376396    9.08570038932058    1.54823135403855
H         3.67224442148850    8.70221991225380    0.73569601483575
H         2.16337730983478    8.45303296464331    1.60134985439473
C         2.64105012272992   10.52077283277839    1.24649251354240
H         2.09286012861371   10.56915650133663    0.30895816710302
H         3.51662670452628   11.16100623079245    1.16454175992158
H         2.00411614246072   10.91315841665793    2.03664742350787
C         2.04824244479202    7.20066111431903    4.43225515641845
H         1.34191969482427    6.37099940819965    4.45929418867476
H         1.61780707963561    7.96564847807386    3.78794416323737
C         2.21111215983247    7.76557579767996    5.84978456806041
H         2.63830669886312    6.99802980248742    6.49834626769933
H         2.91346417654507    8.60155023502314    5.83360452305227
C         0.87626640659152    8.23098501054991    6.41676846575772
H         1.00667279087223    8.62753585906640    7.42042732203129
H         0.17099663649277    7.40411951785663    6.46388475315582
H         0.44535751602013    9.01146634670296    5.79330816089735
C         3.03911303447375    4.36622531463044    4.83393920016778
H         3.76980675950169    3.72652737605610    5.33267854109657
H         2.37429629911442    4.78545754405462    5.58700605386521
C         2.23762792241400    3.50927814751295    3.84215945860393
H         2.92554330766335    3.07936568722520    3.11198191919370
H         1.52952463571113    4.14250615477378    3.30243283901248
C         1.48900418699884    2.39413507373039    4.55858110164685
H         0.92631334930644    1.79834430634171    3.84468694388653
H         0.79357044469197    2.80354281069434    5.28849712253918
H         2.18590409987202    1.74002577996646    5.07661811772596
C         6.64264007422617    4.64959008457787    0.49998153329218
C         8.69650486030326    5.69156280847649    1.90498099415072
C         8.61660444255626    3.24447030610359    1.62557400851246
C         7.88707322843876    4.24886164785466    3.99356590901619
C         6.27235638632569    2.92486820493284    2.40958327690270

