58
CSD_code = JOJBUG | q = 0 | S = 0 | Stoichiometry = C22H28O6SW | MND = 6
W         8.16652334275819   -2.56997678597717    0.74462244946247
S         6.34955539483604   -1.95094883611903    2.57455217482387
O         7.17371885402876    0.32696662664572    1.74785434027066
O         9.29384227715250   -4.62353526962862    2.83496339510571
O         6.86931848805527   -0.62795077399393   -1.34550078402158
O        10.30754547410069   -3.38462230086583   -1.37639267620382
O         6.15047895920772   -4.74572432818824   -0.28503084992504
O        10.16506397401666   -0.47298482073178    1.94468671293561
C         6.40277030443460   -0.28372637824809    2.66090490250010
C         5.70225444155638    0.48485176903846    3.62551776655768
C         5.89190188334685    1.85062604760519    3.64957578335623
C         6.74369352226261    2.46041824393132    2.67167567896196
C         7.34878118108549    1.65926965370097    1.74499946097933
C         4.85228786951571   -0.26543979025011    4.60650122103830
H         4.02061652569786    0.34611170524943    4.95214000487728
H         4.44497654465908   -1.14570128391721    4.10755130326803
C         5.68564009871567   -0.73431268386013    5.80746880470010
H         6.14034158512242    0.12862797695618    6.30019567746304
H         6.49061117670947   -1.37571400240644    5.44669369371981
C         4.82883044167051   -1.50373851912508    6.80277055022380
H         5.43070003626475   -1.83246671146241    7.64615563981703
H         4.39495858646198   -2.38003916493856    6.32809327330620
H         4.02035480852456   -0.88040423136755    7.17986388406280
C         5.17108469279782    2.70140957025026    4.65340890674208
H         5.76497981917654    3.57666647605950    4.91102593570170
H         5.00765782693753    2.13920117598743    5.57146729068932
C         3.81349965215336    3.15934939888491    4.09783789676360
H         3.96629275194535    3.71961665426762    3.17289495888619
H         3.21018575904659    2.28388956155832    3.84986868438612
C         3.07006206034643    4.02631511684783    5.10513690429275
H         2.11141556204422    4.34008804806694    4.69987577666664
H         3.64741336386010    4.91604940863592    5.34742009671702
H         2.88916296820967    3.47550297415312    6.02545568073797
C         7.03121213913106    3.93703896836265    2.69247474249068
H         7.25710447868710    4.28679338714083    1.68670574241441
H         6.15946881813306    4.49102953290767    3.03724156217585
C         8.22648970839092    4.24890707568212    3.60425482271214
H         8.01931203182882    3.89913855727038    4.61769458226405
H         9.10278984163867    3.70408979511306    3.24763736024607
C         8.52599598402313    5.74194149796705    3.63004713248520
H         9.37561975246497    5.94769010944351    4.27594711118846
H         7.66927614360147    6.29948879983774    4.00272141570698
H         8.75967222585304    6.10297101006838    2.63098632902892
C         8.22131477988174    2.10757334816712    0.61430862097903
H         8.84104255020658    1.26258776390427    0.30926657836013
H         8.87714010711801    2.91649943862659    0.93499205565122
C         7.38911570895363    2.55992534899852   -0.59602623953342
H         6.75186480401779    1.73648099393220   -0.91874215577279
H         6.73978668268570    3.39095362454484   -0.31240031223087
C         8.29402945619492    2.97989077104834   -1.74583779980266
H         7.69823107702854    3.29614780135453   -2.59804498948865
H         8.92192273635276    2.14854431786393   -2.05654261555729
H         8.93755529005647    3.80568498534524   -1.44943548475564
C         8.88724595869059   -3.87190131436203    2.08087871710303
C         7.36022648660550   -1.30766547154509   -0.56703564064792
C         9.52213475317074   -3.08770530206518   -0.59543722456446
C         6.87691262590168   -3.94992186940841    0.08572456401723
C         9.42771563266894   -1.22205769695214    1.48996658666560

