57
CSD_code = JOJBOA | q = 0 | S = 0 | Stoichiometry = C22H28O6W | MND = 6
W         8.46094412271060    1.46880856588694    8.47104182650600
O         8.89009303946982   -1.30533130009333    9.28330178491783
O         6.21022681578308   -0.37729102885624    7.30019441250969
O         7.24017462181742    1.03296006284760   11.33038101029243
O         6.57098959823869    3.92726547456045    7.99163503287774
O        10.40873574674829    3.64246853723109    9.61468239936181
O         9.51608783720843    1.88024656751623    5.54256616090914
C         5.81677042824355   -3.64489124656748   10.84865386576422
H         4.88318072440411   -3.11099051427906   11.00292865970179
H         6.13320717876814   -4.06327169030516   11.80202873824641
H         5.63128460764388   -4.46496521960484   10.15798011185893
C         6.87618853839881   -2.70198367147735   10.29390357833021
H         6.52743027645715   -2.27681064653899    9.35178745079663
H         7.03323553987509   -1.87753713141552   10.99138100024869
C         8.19712950413446   -3.43634713639505   10.06553810638529
H         8.03394740976718   -4.25335298085147    9.35541110962943
H         8.52859747657316   -3.88604176308656   11.00493762747754
C        11.94656353721888   -5.89149689584128   11.37512171060687
H        12.32249084032390   -5.95210979357092   12.39326955862023
H        12.72825102019494   -6.23378439963456   10.70039202195719
H        11.09689423874240   -6.56420626926667   11.28247024711035
C        11.53746346283368   -4.46273791360834   11.04278113947388
H        10.76883766960117   -4.12992301034293   11.74297963901803
H        12.39521191943341   -3.79824547501327   11.16547796318647
C        11.00241521641166   -4.35458559218682    9.60820309849949
H        10.15102165525382   -5.02660392842311    9.49765313954643
H        11.77073370473565   -4.68925012149436    8.91275953991548
C        14.37001896705003   -3.26869303457466    6.61459934681768
H        14.40115671273985   -3.61112414026268    5.58329226343003
H        14.72075792801799   -4.07580375950648    7.25456324114432
H        15.05420795935699   -2.42939196506903    6.71759714521254
C        12.95411614401341   -2.85646098620709    6.99438645537521
H        12.27663449331621   -3.70262745096130    6.85930037416248
H        12.61253714393360   -2.05957380638326    6.33071125218019
C        12.88773428578820   -2.36878838575229    8.44998974085217
H        13.23766848356850   -3.16144298180200    9.10974750847558
H        13.56474362956194   -1.52552943174047    8.56969055807018
C        13.54520852399338    2.21133128894391    8.93279512888256
H        14.05010735110806    2.63397358823967    9.79793509213148
H        12.94199605723683    2.99067555984405    8.47420183695221
H        14.29916362883112    1.89363579670065    8.21507230232135
C        12.66842691865497    1.03823497825927    9.34795800880640
H        13.27967507739464    0.28162344673970    9.84656877523733
H        11.91741269656061    1.37528002465694   10.06518293080827
C        11.95149666258757    0.42319870319910    8.13778684632572
H        11.36301895116908    1.20479168427607    7.65388719855496
H        12.68628019988793    0.06176786034769    7.41867389755219
C         9.28595111569430   -2.54630088110805    9.53462435011769
C        10.57919764835498   -2.94626859842285    9.29264838415011
C        11.48183121214496   -1.97078660095512    8.79668534473535
C        11.02570252299408   -0.67462635357589    8.57905168374733
C         9.67068766740876   -0.32865808195801    8.81405214526289
C         7.05606897361906    0.26789460200111    7.72036347775364
C         7.70399840463873    1.20283180676087   10.29893284224818
C         7.26264384031178    3.03237188301773    8.16798246992889
C         9.77304350842022    2.77884845737299    9.21615229632562
C         9.17440656066600    1.71082529865153    6.62180616861896

