71
CSD_code = JOJDUI | q = 0 | S = 0 | Stoichiometry = C28H28Cl2F8N2O2Ti | MND = 6
Ti       12.52926575286866    6.85207833128908    3.82956356751858
Cl       11.68586967558186    8.32867134056274    5.25842708388570
O        11.00130727713947    6.73938777957117    2.92734041508055
C         9.51124709485423    7.42160136832503    1.21071546490004
C        10.69285848297922    6.59974892989166    1.69992516627052
C        11.45020465825571    5.77851407607010    0.86935378682150
H        11.14246296827113    5.60677386103216   -0.14641789636016
N        13.15357008133993    5.33158637130407    2.50095873635743
C        12.63113438371581    5.17114661441386    1.31718555657279
C        15.56385276244053    5.43848849962382    2.31161583498952
H        15.48460295704615    6.25565774686014    1.60766294820508
C        16.80243105446083    4.98866790463060    2.72820864491757
C        14.55240023857539    3.81967655734480    3.79053243388822
H        13.66698464006038    3.35743903779647    4.20362156018630
C        14.42382940784075    4.83885819221389    2.84593613335546
C        10.01452783324589    8.87704608618047    1.25010325053582
H        10.86161140490753    9.00814568580179    0.57920951904339
H        10.33453567844919    9.13797050218809    2.26046620408724
H         9.21689289505514    9.55097574279710    0.94771335262876
C         8.35587865990828    7.25603271207342    2.20574388789277
H         7.54389159275503    7.93051398329919    1.94724540211424
H         8.69269580091187    7.48731790723318    3.21503867976882
H         7.98170113600456    6.23431826126798    2.18733510273214
C         9.04786136574108    7.06143831882507   -0.19824241800761
H         9.82072628338764    7.27027600063622   -0.93294890280782
H         8.17594349130958    7.66042963848827   -0.45023802985182
H         8.76821075789825    6.01249803634000   -0.26089455227290
F        13.79035851405756    3.12811522164367    0.89920080609436
F        14.37581716077439    4.83108003976608   -0.28425722555484
F        12.51394427956566    3.83842792135619   -0.66423427477764
F        17.90380458167938    5.57029541579303    2.22308107267517
C        13.33099678456187    4.24711221689607    0.31528005534396
C        15.80746158699650    3.39144581789661    4.18229064348510
H        15.89654364528129    2.59635376824038    4.90633919233326
C        16.94871843701672    3.96931788572755    3.65293836218278
H        17.93495278736903    3.64648894222534    3.94493001139924
Cl       13.37247716610531    8.32861527701162    2.40049980844016
O        14.05725292209928    6.73969988705199    4.73176079090364
C        15.54760594034115    7.42175703137393    6.44819566331146
C        14.36602039108896    6.59982455374421    5.95906339341010
C        13.60895576889898    5.77833455016005    6.78963625442617
H        13.91699010016848    5.60635087366004    7.80528204215272
N        11.90515816447281    5.33168457523865    5.15838313318959
C        12.42793317233391    5.17101998463919    6.34197612555171
C         9.49493827947500    5.43864455244587    5.34855979915891
H         9.57445199264228    6.25565565714356    6.05266482942478
C         8.25619651079812    4.98895780422923    4.93230308119583
C        10.50581495218443    3.82012572243182    3.86893442389151
H        11.39107409942065    3.35796588154465    3.45541978203391
C        10.63475707331685    4.83909427020599    4.81371270789286
C        15.04391498436513    8.87708235260270    6.40960837120549
H        14.19699750739192    9.00766203240366    7.08081115960951
H        14.72353557111417    9.13837333123397    5.39945934320237
H        15.84146059808244    9.55108879596003    6.71205973270825
C        16.70267578809436    7.25694736926978    5.45270268214831
H        17.51448102596506    7.93168986209225    5.71108631703438
H        16.36539894108645    7.48837632026689    4.44359375433541
H        17.07728272496980    6.23538511519176    5.47070287860145
C        16.01157798422216    7.06108315744072    7.85682847731295
H        15.23898674243276    7.26954744044042    8.59192907696578
H        16.88353677472391    7.66006003430337    8.10870909515337
H        16.29135532375007    6.01214365182792    7.91894481309750
F        11.26886911420404    3.12788488920069    6.75984491465576
F        10.68379303062101    4.83053874900559    7.94392474240709
F        12.54579152048967    3.83780199071572    8.32302724202054
F         7.15502096724190    5.57050307117138    5.43795488380699
C        11.72841445362641    4.24673754553389    7.34388519019851
C         9.25060180553222    3.39201632341534    3.47753248083288
H         9.16123530840954    2.59707956256627    2.75334716212983
C         8.10954791431433    3.96980590147980    4.00741436340503
H         7.12319927371068    3.64706516739319    3.71571190855186

