77
CSD_code = JOJFIY | q = 0 | S = 0 | Stoichiometry = C30H28Cl2F12N2O2Ti | MND = 6
Ti        9.69664683052582    4.30041675073322    0.00001866288285
Cl       11.36991486617089    2.89874818917643    0.62096400015930
F        12.57296337819474    3.61750364142367    3.42300257650888
F        10.43085769086869    3.33078839486498    3.39183812716146
F        11.39845420856240    4.09770592939043    5.14663020588977
F         7.80023861993367    7.07277164319173    3.42488676089082
F         8.80237834685903    5.65533883479825    4.69495995331568
F         6.70903028041282    5.45945920158894    4.31008847817291
N         9.33730272539819    5.06476173249439    1.90213456413412
O         8.44915515783003    3.05282758389211    0.40875657514585
C        10.27929457640146    5.97593255662858    2.41236780414553
C        11.26977103958126    5.57739782975671    3.31657493526175
C        12.16675455392128    6.51138302323681    3.82522165906049
H        12.91758659265933    6.18516913291336    4.52835993399558
C        12.08172918779091    7.83769861542182    3.44514775419220
H        12.76872018700993    8.55899997508985    3.85761735133847
C        11.10913431699865    8.23517418902280    2.53989877703634
H        11.03600842679629    9.27011544367140    2.24326173323636
C        10.21829340091973    7.31478744973321    2.02041415880191
H         9.44155125930279    7.60970634531282    1.32513763487768
C        11.40667334666949    4.15880205427978    3.80054624287500
C         8.18800834361784    4.90482392627093    2.50667500011354
C         7.87323910569416    5.76899381353960    3.73210818061486
C         7.21516307731982    3.96942501011389    2.15657314242303
H         6.31053100174451    3.94241593903631    2.73588096271723
C         7.40904705833789    3.03432337264216    1.14218719172542
C         6.37083289144790    1.95119064846624    0.86995513761300
C         5.25012491859105    1.88210152314895    1.90693621514109
H         5.64631833421482    1.73037598250229    2.90757547183424
H         4.60547672388383    1.03898711891155    1.66824332739591
H         4.63980523237355    2.78103218055644    1.89446327072836
C         5.76994499290633    2.28746787716032   -0.50352975695827
H         5.26366129635589    3.24980654037249   -0.46805933498978
H         5.05356257868460    1.52324930092408   -0.79473064960248
H         6.55244751765700    2.34288521702310   -1.25429836360442
C         7.10207867471707    0.60307592190373    0.82869802461577
H         7.97932795860380    0.66771443415204    0.19099648623989
H         6.44133923793507   -0.16997449290319    0.44455601837796
H         7.42389460389624    0.32412010534828    1.82969161639418
Cl        8.02327199672090    5.70198078760135   -0.62073649432594
F         6.82027825248511    4.98355388740567   -3.42309712401903
F         8.96239866797305    5.27017140509808   -3.39186921059113
F         7.99481949322758    4.50327469706340   -5.14667921712501
F        11.59290200118501    1.52813008273122   -3.42491178116678
F        10.59080454617450    2.94558978394949   -4.69498787039240
F        12.68415150996920    3.14142623139715   -4.31009367703971
N        10.05586290910371    3.53617886286764   -1.90216602185543
O        10.94404708767248    5.54807392327451   -0.40877371862277
C         9.11385029735769    2.62502924097067   -2.41240960145939
C         8.12338445751564    3.02360168913830   -3.31660794907206
C         7.22637101596335    2.08964942142575   -3.82525941437895
H         6.47554833075319    2.41589580737639   -4.52839135893651
C         7.31136227591976    0.76332649890013   -3.44520559482463
H         6.62434859330600    0.04205192592090   -3.85768400022623
C         8.28395550679958    0.36580945804721   -2.53997289548795
H         8.35705800473829   -0.66914013599369   -2.24335857602742
C         9.17482266761195    1.28616649494788   -2.02047874328763
H         9.95156601429635    0.99121382838180   -1.32521748154636
C         7.98655437459785    4.44219787905428   -3.80059338994251
C        11.20516762493065    3.69608658118933   -2.50669502894890
C        11.51993036013910    2.83191200988020   -3.73212847644724
C        12.17804069024570    4.63144616793641   -2.15656690683936
H        13.08268844511291    4.65841989192510   -2.73584985423629
C        11.98416862553211    5.56655572713005   -1.14218732319976
C        13.02241620202429    6.64964353455509   -0.86991700160975
C        14.14315504131056    6.71868565299747   -1.90686570629117
H        13.74699544292805    6.87043601850970   -2.90751424361925
H        14.78783612995062    7.56176719449728   -1.66814887601618
H        14.75343106602756    5.81972530734914   -1.89438136708231
C        13.62325550669055    6.31334032876737    0.50358339170780
H        14.12948922392024    5.35097457446361    0.46813131852684
H        14.33967193123781    7.07752296228979    0.79479755373502
H        12.84073326003394    6.25796946707919    1.25433473737291
C        12.29122169913372    7.99778583835241   -0.82867248914946
H        11.41395504493572    7.93317910334117   -0.19099059179326
H        12.95198258659692    8.77080823661288   -0.44451177655322
H        11.96944057508934    8.27675669777620   -1.82967306909095

