45
CSD_code = JOJFAS | q = 0 | S = 0 | Stoichiometry = C22H16F2N2O2Pt | MND = 4
Pt        5.15771717121003    5.20210926166809    9.42737295372848
F        -0.64796885128262    4.82904820117525   12.13501367361756
F         0.80090127899972    6.20159358112125   14.03103876077108
O         5.61011670259318    4.43001368943506    7.64108135034780
O         7.05627875163439    5.81566290778371    9.53243081571597
N         3.29414326737919    4.62523143240681    9.36920787132757
N         4.66810920594090    5.94070836468871   11.16624411658543
C         4.78319716715483    3.81477428458320    6.88585514501239
C         2.59061604782117    4.98806481961117   10.51029267685082
C         3.33842877374457    5.70243663812266   11.48845853918981
C         2.75457831240688    3.96853877593807    8.36607712118157
H         1.70425019009586    3.69506730237899    8.43002555175102
C         5.49405097041700    6.59974937968544   11.94855913860615
H         5.11779893979702    6.98550178680283   12.89283525092657
C         7.55576678823388    6.46526672861544   10.51285044085798
C         3.39648481485434    3.56564066254749    7.18278123707127
C         6.84994481298518    6.87244256908587   11.69993907667136
C         4.47076570721310    2.66954299648258    4.75353260722494
H         4.87786160215767    2.32008296696702    3.81533666064511
C         7.55697614230309    7.59561502460505   12.69828083077301
H         7.00977841713811    7.89462273328818   13.58215388443138
C         1.24572600622888    4.70635105480007   10.75235123653739
H         0.63455724619080    4.16990382359953   10.04599497414984
C         3.10876922393925    2.42460546722856    5.03673068597448
C         2.60983027150378    2.86866377548438    6.22628311812629
H         1.57009896190416    2.69140978405118    6.46628596323180
C         9.56444827442770    7.51373786903056   11.41958417128622
H        10.61090447375897    7.76446695344820   11.31901849233536
C         8.93359155731230    6.82237048251778   10.43201816129387
H         9.45641517620515    6.51388449305276    9.53971426243949
C         5.26812278841444    3.33088821064683    5.63562342209694
H         6.30890916390671    3.51884125285568    5.42091618682229
C         2.71107854300849    6.10003127961759   12.66951474187804
H         3.23129775896302    6.63758359928828   13.44456630439507
C         8.87778537751255    7.91797479068464   12.58593458289348
C         1.38032368985561    5.80778233525861   12.88449583904317
C         0.64866764308688    5.11344009575748   11.92719486007342
C         2.26417925489709    1.69916225498907    4.03485096297607
H         2.21449326262878    2.26377543819969    3.10389726189879
H         1.25327567689072    1.55547838286935    4.40765577776607
H         2.69539984754704    0.72431201143513    3.80927828751063
C         9.61080409407629    8.67500134579602   13.65032599575093
H         8.95017035314682    8.92573559405606   14.47608649522239
H        10.02533762488259    9.59644314984577   13.24305521344341
H        10.43851751691418    8.08004244849354   14.03495529956700

