60
CSD_code = JOJJUP | q = 1 | S = 0 | Stoichiometry = C27H23N6NiOS2(1+) | MND = 6
Ni       -0.85860640699907    0.54330404937651    9.68796719192878
S        -2.35180333234615    2.25306158874093    9.48216329985427
S         0.66735560889807    1.59985113575875    8.32394773408823
N        -0.20449727699253    1.74307900387350   11.58362633415634
N        -2.10886115994793   -0.34101199485013   10.85809594464262
N        -1.94395769767964   -1.45760511726344   11.43247428388013
N         0.18702376324525   -1.92998014111735   10.54980358111223
N         0.36033487746364   -0.88892262747164    9.86746640410556
N        -1.47645950428743   -0.47472411116772    7.67821156305714
O         0.14713853133642   -4.24627676906735   11.89616413028855
C         0.45493962607623    1.21214620428837   12.60926901585430
H         1.01887393871479    0.31147435870906   12.40101985092787
C         0.44030197221899    1.75716081811982   13.88152096297493
H         0.98871802985701    1.28649902858065   14.68088075544185
C        -0.29596196628926    2.91117021852141   14.09740197487707
H        -0.34074763448083    3.36406271061944   15.07564798787246
C        -0.97382779514149    3.47766044836807   13.03074834370626
H        -1.54776984590600    4.38205160228644   13.15811231543679
C        -0.89563080241707    2.86725056635139   11.78558792138208
C        -1.57491462204359    3.48185784146961   10.59773226937378
H        -0.84174723122525    3.99406414208978    9.97029453525832
H        -2.34647864613564    4.18878565402676   10.90077741824815
C        -3.55179160733381    1.57102312759699   10.60489829261114
C        -4.71389111227583    2.26310932421731   10.89247200738702
H        -4.89183775168813    3.22246719899193   10.43128659970337
C        -5.63944402709676    1.71443433056572   11.76366906135590
H        -6.54596136041172    2.25155925973560   11.99261611725178
C        -5.40043643696200    0.46984359782748   12.33171576756347
H        -6.12423971132613    0.04029737583533   13.00638732609178
C        -4.24707549422426   -0.22762471446407   12.03996429108714
H        -4.05827891659700   -1.19511279923030   12.47674231027282
C        -3.29751899845882    0.31758359243336   11.16615729654798
C        -0.86999302973486   -2.22118187776063   11.29322941419032
C        -0.80907933781054   -3.52217840509751   12.01708370212061
C        -2.00234841113823   -3.82911729552571   12.87481997930664
H        -1.85927761975634   -4.78487225604633   13.37027950495316
H        -2.89761549961732   -3.86647769906079   12.25854509947918
H        -2.13329947148524   -3.04528789464146   13.61712165232808
C         1.55550624572080   -0.84706779447634    9.14721818797314
C         2.47508379608773   -1.90303429081323    9.18858046256709
H         2.25616269797517   -2.76121599002926    9.80482808165943
C         3.63497157717200   -1.83219874948202    8.44536191146657
H         4.33759911880465   -2.64979731028253    8.48111506225475
C         3.90644332351764   -0.72135405072870    7.65679625163399
H         4.81782111954444   -0.67240021039982    7.08241213879669
C         3.00912697437097    0.33260547143281    7.61415904474363
H         3.21406720479426    1.20861086922951    7.01808184020465
C         1.84062586041797    0.26253854521724    8.35018983913868
C        -0.11120237596100    1.26867137501676    6.69812592357385
H        -0.85904511412285    2.05707616474797    6.58788054656953
H         0.65438187737128    1.38648428056816    5.93245094278534
C        -0.76423487118475   -0.07898771210441    6.62035300461891
C        -0.63764999489942   -0.85641990568406    5.47668471720282
H        -0.04655557216635   -0.50758025647021    4.64453039112809
C        -1.28808342458300   -2.07808222966446    5.42255716498319
H        -1.20421941011091   -2.70327399288658    4.54737640913724
C        -2.04781092548848   -2.47671061132747    6.51064309297114
H        -2.57615297544155   -3.41575175233442    6.50854920819874
C        -2.11059094877539   -1.64172448958701    7.61282336030274
H        -2.69467782304487   -1.91671083555966    8.48238017737568

