86
CSD_code = JOJMEC | q = 0 | S = 0 | Stoichiometry = C41H37Cl2N4PPd | MND = 4
C         7.21624270932683   14.67714140521701    7.73626336552499
C         6.92094104007242   12.47460600529582    7.59516912514394
C         6.48623542522731   12.88665952148335    8.84143321657310
C         6.90867525230645   11.19356649334469    7.03104224592921
C         5.98092106708216   12.12139489630230    9.89924722770913
C         6.26898339234327   15.10825939330789    9.94950944706832
C         4.90099131497204   15.28814940100412   10.17364644441612
C         4.51481436294207   16.14360454124605   11.19032829741944
H         3.46166372881065   16.30161651372664   11.36907020759345
C         5.44465778917436   16.81807802715989   11.97090158021324
C         6.79248319302317   16.62618121674200   11.71659615527328
H         7.52852545579018   17.14777528842983   12.31224311995971
C         7.23039919970215   15.77783378635121   10.70706116283990
C         8.69877952916232   15.60180248800334   10.45328375634120
H         9.01385032996382   16.19016446762538    9.57285477931217
H         8.95120819725528   14.55797730375590   10.26480308957898
H         9.27531478686149   15.94735040394885   11.30804735030100
C         3.87894006456660   14.62440946611777    9.30348976792587
H         3.88321993876649   13.54161169544919    9.43054180662793
H         4.07835793528184   14.86186538173799    8.25830332625099
H         2.88622121329750   14.98962288098414    9.54972196937393
C         4.98044072986327   17.73718278249722   13.05829484855368
H         5.82188702759589   18.18019152847500   13.58526135947812
H         4.36949354119001   17.19215453443836   13.77645575767654
H         4.36673107682383   18.53387796537776   12.63951385968915
C         7.88311968199794   13.67383992069869    5.62300443585205
C         7.10250583620164   14.28083551194689    4.63533221864209
C         7.64424494120415   14.40228141059077    3.36532508026022
H         7.05688931535125   14.86813137417496    2.58712606266925
C         8.91738771846071   13.93420967426839    3.06931991768488
C         9.64908630929233   13.30854681274790    4.06691296762698
H        10.63721593720929   12.93305013142497    3.84631280503946
C         9.15288390514801   13.16469106430369    5.35387153082023
C         9.97014410177769   12.51638958314044    6.42689899204130
H         9.47989778087227   11.62370837748197    6.81606068617547
H        10.12542228591133   13.22142940956218    7.24380632691919
H        10.94218692222923   12.22896288701173    6.03713834223674
C         5.70324610847771   14.73891129520249    4.92465311237680
H         5.68717246700101   15.55870833419425    5.65180376224547
H         5.10976620927609   13.91944302575919    5.33322285230473
H         5.22312061282825   15.08614873978668    4.01369779615726
C         9.48176415393385   14.11485599101898    1.69416140067176
H         9.75356203699998   15.15943381186489    1.54042038927363
H         8.74638849062632   13.84576911991759    0.93807390999032
H        10.37086878561878   13.50584889489531    1.55406734966134
C         7.36303307237565   19.81166280085111    8.06796145021401
C         7.23578190096044   19.40490686135682    9.39575358542606
H         7.71799903922658   18.48086072705668    9.71349353195517
C         6.48180474076241   20.14643322295199   10.28222781727543
H         6.38272917073426   19.82538086534097   11.30819126378684
C         5.83906336042137   21.29397938720678    9.84290107283072
H         5.24017388357797   21.87320085051092   10.53042998921638
C         5.94710832165662   21.68863318269263    8.52047839782317
H         5.42943231191782   22.57260512659713    8.17727022940134
C         6.70682437082979   20.95057990960967    7.62771625767776
H         6.76790402718905   21.24936285443924    6.59139454101990
C        10.05873635703506   19.31701430020512    7.29543321693916
C        10.41659721243758   20.09402604002232    8.39104205206058
H         9.66954462101964   20.38359471596253    9.11769387627473
C        11.72945332213664   20.50249771184427    8.54766280608282
H        12.00250352702235   21.11139112036236    9.39742207816011
C        12.69052590135480   20.13056419438146    7.62299267049989
H        13.71482526450206   20.44805685950694    7.75157528042339
C        12.33887981112937   19.34646575860687    6.53559811841526
H        13.08851778683153   19.04827427041831    5.81762776898301
C        11.02945735533098   18.93920548080287    6.37089456595803
H        10.75193482661235   18.31797461433925    5.52988255795875
C         8.09205377930144   19.11196807733815    5.30146164632072
C         8.40699428060536   20.35646410554747    4.76217005311934
H         8.83571779008550   21.12411228797441    5.39272000160943
C         8.18914384370245   20.59500767432854    3.41794798657063
H         8.42587663798512   21.56197210249952    2.99825058336469
C         7.67570193285437   19.59460877622729    2.60636668708649
H         7.50865608312014   19.78842071121413    1.55696082904053
C         7.39084864290963   18.34592962086392    3.13377952719358
H         7.00960316006221   17.56351565746378    2.49469213087008
C         7.59954334472766   18.10194677353079    4.47947248209235
H         7.39676010783460   17.11405585619369    4.90625290556547
Cl        9.93691576781697   15.88768517891105    7.05199843313295
Cl        5.58207709386651   17.24564302383259    7.56908992083657
N         7.36018493738184   13.60179152280671    6.94619286145914
N         6.67939231271496   14.24587608797584    8.89085743801921
N         6.88943441843041   10.14778238309177    6.56111443263535
N         5.57549823463887   11.49529957349117   10.77019454746534
P         8.36693234310780   18.69382637825426    7.04619549051021
Pd        7.76388320196247   16.53925059534087    7.38794570926340

