52
CSD_code = JOJPED | q = 0 | S = 0 | Stoichiometry = C20H29OPRu | MND = 8
Ru        3.09550275702861    2.72034219418000    2.80655169240591
P         1.37207564854533    2.17823428583324    4.19618009989206
O         4.82438294077120    3.32447269075119    5.16298418994652
C         4.11561621536251    3.13478895313224    4.26692783349720
C         0.82954569322652    3.48446303383661    5.36189588718060
C         1.78015013541273    0.83831932608821    5.38787074313014
C        -0.25784346402634    1.56151167944271    3.60336108995073
C         2.43025996700255    4.67080524657980    2.67244556921616
C         1.15065499074774    4.92204601876166    2.18202007628147
C         0.73169001728927    6.19746527534969    1.83931300344968
C         1.59285941565501    7.27029432467829    1.98192914910723
C         2.86810576962650    7.04980965454006    2.47162562955252
C         3.27711989229602    5.76939017355260    2.80956388810197
C         5.93451448504269    3.34055819189237    1.01825230219950
C         5.68913521979664    0.49668721637578    2.38660815018033
C         2.75654819297724   -0.59921114661884    1.81841340318457
C         1.22329926928856    1.57175686659272    0.10269959388673
C         3.19113729594990    3.99776180386712   -0.40326285106194
C         4.64808856071500    2.59646096168912    1.23565012300149
C         4.54057154292322    1.28408650511626    1.82671607651808
C         3.22726819785454    0.80973590062519    1.60108656391950
C         2.51105618510220    1.81419911720222    0.84093002604804
C         3.41594977880611    2.87223875715185    0.56112775335962
H         0.39881402014128    4.30973380369999    4.79749552167886
H         0.10244822043842    3.09578618749272    6.07472597594232
H         1.71217728756438    3.85149726147741    5.88592877077088
H         2.65826857861626    1.14467542843269    5.95532828951279
H         0.94919745157699    0.64740957097150    6.06645312336216
H         2.01918119026536   -0.07172965761516    4.83986646139420
H        -0.91731073958897    1.38719526427444    4.45325766323162
H        -0.71241951050759    2.29227278621224    2.93828570426067
H        -0.11843051083147    0.62816002270815    3.06102706308151
H         0.45083030284184    4.09947252325758    2.06081404570123
H        -0.26982886733851    6.35309391472372    1.45910324193004
H         1.27262943589165    8.26766265630965    1.71593863976448
H         3.55099589419739    7.88040755860551    2.58989916502183
H         4.28213598332718    5.63109143198687    3.19326219789861
H         6.61419235588192    3.20492674662155    1.85764920715621
H         6.42899361506912    2.97278610545437    0.11546301367584
H         5.75125111831450    4.40645461957090    0.89594809268224
H         6.23006194493180    0.00742525989296    1.57255254692940
H         6.38795750014489    1.14107584132433    2.91712018494395
H         5.34562435321825   -0.27212506355472    3.07639064656407
H         2.97039431025951   -1.19601667503275    0.92783853056847
H         3.26517076109127   -1.06204868313549    2.66264921814666
H         1.68325975620912   -0.64300960142823    1.99831069524904
H         1.43625927011155    1.12421200040166   -0.87187456007022
H         0.57022841875217    0.89263387214928    0.64762774005550
H         0.68394420142630    2.50241850203808   -0.06672436345370
H         3.71207641413512    4.90002490524513   -0.08764331234417
H         3.56771889876448    3.71046924986717   -1.38824628358937
H         2.13368963751410    4.23622713747983   -0.49673721302687

