72
CSD_code = JOJPIK | q = 0 | S = 0 | Stoichiometry = C33H32O4P2W | MND = 6
C         1.63854787278410   14.52124099531366    7.60487977716179
C         0.89312593792972   12.05526466335806    6.76901884624631
C         3.39651485153370   12.39718521602497    7.83002249594598
C         2.22756616470608    9.53374716583455    8.82693713652317
H         3.28921517803084    9.79484978938048    8.79189403109267
H         1.84381593163433    9.47613926025280    7.79785091847678
C         1.95199393879668    8.23991518834465    9.58753907819485
H         2.01934439490736    7.36250300100489    8.94950585236763
H         2.64992089267613    8.13290664481938   10.41944615616914
C         0.54319236360071    8.50029349569662   10.11353979481791
H        -0.19348139159009    8.33516024280459    9.32607310924569
H         0.28405651091041    7.89095587903504   10.97597694743417
C         0.62821635944282    9.98380419276858   10.45884991631978
H         1.02962339965958   10.11870861977308   11.47435910699866
H        -0.33906406166964   10.49246179126019   10.38808453795155
C         2.79173942520340   12.26992214098296   11.83305447160564
C         3.87336609071422   11.50411413119081   11.40022263758433
H         4.33848784529755   11.75388019537060   10.45378496189449
C         4.33788418791008   10.44874822953637   12.15905095699635
H         5.17628162973590    9.86009379559116   11.81491910230305
C         3.72268220020757   10.14273749226820   13.36411034804787
H         4.07895003115901    9.31511556366156   13.96001711805825
C         2.64985046688530   10.89928841460853   13.80273924577556
H         2.17062814421275   10.66276361362127   14.74248395298072
C         2.18027732496579   11.95746541962428   13.04088271339073
H         1.33650973458388   12.53071822973770   13.39920852519231
C         3.60780833096439   14.76135959017685   10.90927785292092
C         4.16052057255107   15.39235549681438    9.80245639434535
H         3.79379081674315   15.13773995468036    8.81657141699634
C         5.16930175451163   16.32493799677735    9.96950455941474
H         5.59735704803336   16.81456900091741    9.10748923805387
C         5.63095012004970   16.62543809011925   11.24011610811278
H         6.42004963894490   17.35133635400138   11.37144287839633
C         5.08686035313325   15.99107363266449   12.34633280288456
H         5.45316928030220   16.22195015479773   13.33648026965718
C         4.07874568025973   15.05979120733937   12.18458537432567
H         3.66223389745078   14.55423343629118   13.04615376824164
C         0.86326331604943   14.42668111905676   11.46904361334632
H         1.05322916441539   14.59583946436375   12.53481626006179
H         0.81592990846900   15.40398455261659   10.97213555177740
C        -0.43103383051830   13.65638996067654   11.22569836618612
H        -1.30055564145262   14.18969836839490   11.62341311063983
H        -0.38639551140558   12.67397076134731   11.71189413844509
C        -1.30899641079003   14.86396661424498    8.73653996263976
C        -1.60474983213619   16.01878896610013    9.44800305308575
H        -1.43246206251148   16.07852559713552   10.51318465729623
C        -2.12114709002016   17.12294128986182    8.79011656142003
H        -2.34296984304240   18.02108830288540    9.34908715912455
C        -2.34859553279599   17.08277033896510    7.42634366784558
H        -2.74793874526284   17.94915236312917    6.92006695975520
C        -2.05474922645073   15.93238352487051    6.71022480004533
H        -2.22357972976183   15.89962752292112    5.64420589210327
C        -1.53401071464577   14.83298527041924    7.36121242897207
H        -1.28011993375106   13.93485215119650    6.81159907596159
C        -2.08377969133497   12.28712211972859    9.32505486459822
C        -3.26909877375485   12.62442864753316    9.97019532442706
H        -3.32465480241304   13.52904865341400   10.55981012274293
C        -4.37968336984454   11.81118120986429    9.84360897761793
H        -5.29908836483425   12.07399827830283   10.34670560672382
C        -4.32033932762723   10.66512979320554    9.06581464670932
H        -5.19234503719368   10.03541893177774    8.96760182113388
C        -3.14863641462176   10.33439136979637    8.40613007926823
H        -3.10652564789643    9.44935502593611    7.78784716816448
C        -2.03465305245735   11.14463814329290    8.53464718322881
H        -1.11380868057400   10.90669711253165    8.01558851358245
O         1.65432113612483   15.54461395447124    7.07340637372293
O         0.50689464827527   11.66289053314957    5.75724552577208
O         4.46850652618508   12.21730699958822    7.45215640604033
O         1.53210726941198   10.56035180136980    9.52687208367498
P         2.27380853803268   13.55246335212082   10.64609438276564
P        -0.58718894275228   13.33203270364206    9.40577431054026
W         1.57611278537195   12.77291691504577    8.46529894883685

