70
CSD_code = JOJPIH | q = 0 | S = 0 | Stoichiometry = C30H36OP2Ru | MND = 8
Ru        0.49815239526159    2.66354994133052    6.09514816241286
P         2.71570240577333    3.10526685766070    6.16409725879504
P         0.35541095404814    2.16246641213885    3.87221953585883
O         1.31485400765252    0.09483719942820    5.26301342173258
C         1.01392220861558    0.74489549184702    6.25100626214639
C         0.98559381339259    0.01756408141215    7.60788604877617
C         2.33929077649101   -0.65550925649250    7.84191373131104
C        -0.11636040484936   -1.04382386670305    7.56312664153065
C         3.98270218856155    1.98159883871626    5.46146750431169
C         3.36356632898562    3.31253466982496    7.87536902187880
C         3.30799483678279    4.68749488763960    5.42706131420466
C         1.79032338070510    1.95292627855250    2.74642655436642
C         2.35671072417427    3.03282645523355    2.07486694956181
C         3.47582191825002    2.85884293411721    1.27868209067690
C         4.04490671615616    1.60492011505278    1.13835664195924
C         3.48437769360970    0.52317202893370    1.79851834054976
C         2.36875409133695    0.69295638744895    2.59734939780410
C        -0.68273800320040    0.74692081706532    3.36973567044598
C        -0.67396110489449    0.24404721139551    2.07163618833015
C        -1.51170418936685   -0.80142218176325    1.72766983226279
C        -2.36627220726142   -1.35156578176007    2.66942015086505
C        -2.38639782167708   -0.84830106307517    3.95948117273435
C        -1.55137479028331    0.19856098948763    4.30369383552427
C        -0.50906344209078    3.53418275647112    3.00900109523833
C        -1.60542482497496    3.37753219770261    2.17109115924971
C        -2.20627475460967    4.48423528673908    1.59379179491626
C        -1.71910969550848    5.75591450958903    1.83937534754810
C        -0.63160608253677    5.92372452083448    2.68222738138456
C        -0.04141610178300    4.82119714797333    3.26902447054898
C        -1.24297093789715    2.56119107081438    7.54292611572529
C        -0.21108011216332    3.32400008964445    8.13379487558271
C        -0.07967322687122    4.53180471490667    7.37637482372698
C        -0.98385416296901    4.48957799380770    6.31435193414175
C        -1.67024269937265    3.23914581126725    6.37432494348963
H         0.78796105943947    0.71822297049156    8.42526245796214
H         2.56839967780844   -1.31067628320185    7.00429576183511
H         3.13041733629100    0.08676987711840    7.92904065476363
H         2.31683656977020   -1.24660203545344    8.75609851370044
H        -1.09834231248422   -0.58591463818280    7.46757455578749
H         0.04135228744281   -1.69505833224929    6.70602508645710
H        -0.10287203199760   -1.64414289939260    8.47162461474925
H         4.97842720478637    2.29869549410530    5.77171736374291
H         3.79081977298529    0.96452904424481    5.79396817588534
H         3.90963371053875    2.00284116881912    4.37598871389312
H         3.16395057862395    2.40502553784505    8.44297839380414
H         4.43549524361267    3.50985945942246    7.86310843382551
H         2.84680207087134    4.14348047187630    8.35389386288439
H         4.35337514059153    4.85848378620842    5.68312493759033
H         3.20726218016218    4.62843789465227    4.34416576993415
H         2.70389375458186    5.51366465969149    5.79974709066783
H         1.91533227042597    4.01552337917013    2.15448407784483
H         3.90133677364817    3.70747757563340    0.76175782401895
H         4.91733131868322    1.47138018561835    0.51529941142028
H         3.92046030729511   -0.45942987422607    1.69024680143398
H         1.94370593006553   -0.14534385100960    3.12526028173938
H        -0.01207493907738    0.67259649180482    1.33150411537752
H        -1.49759598008720   -1.18993684714566    0.71916601621306
H        -3.01466111391293   -2.17188219799622    2.39740808877104
H        -3.05193750459388   -1.27540766624758    4.69625059728521
H        -1.54778907811786    0.59567522349246    5.31153695297994
H        -1.99997757965804    2.39183256118998    1.97110944542866
H        -3.06240475010665    4.35029581308129    0.94790530293245
H        -2.18990650458478    6.61528885378025    1.38444440622224
H        -0.25339643606651    6.91575281348109    2.88768339341411
H         0.78495647753053    4.94302882254580    3.96032616686322
H        -1.70123711501887    1.67694402249231    7.96647694225097
H         0.21365659225357    3.16133629368867    9.11672334053418
H         0.52881332097876    5.38174785865135    7.66014725466005
H        -1.20871928578831    5.29273208956827    5.62815047813849
H        -2.54176482436301    2.98880672910349    5.77977504538113

