72
CSD_code = JOJPUW | q = 0 | S = 0 | Stoichiometry = C33H32MoO4P2 | MND = 6
C         1.53595445530512   14.60881213684660    7.76605347644505
C         0.85271256266001   12.19748722629880    6.87759699459919
C         3.32439024572542   12.57585603658532    7.96099341109140
C         2.14214046333341    9.68990723170531    8.73341406724473
H         3.21456419636089    9.90098448887014    8.66493559629419
H         1.71181629387365    9.71314796880341    7.71986807343082
C         1.83156332644396    8.36539916461029    9.42539382602359
H         1.83639791765483    7.52575394571408    8.73509850585362
H         2.54941234840436    8.17628904283438   10.22513846869568
C         0.45423748023653    8.66054014040865   10.01283362014225
H         0.19134422679074    8.01295279187756   10.84581156901697
H        -0.31416588536016    8.57838985719345    9.24251766283837
C         0.62495122040437   10.11494706289374   10.44210661624954
H        -0.31681061470086   10.67578209097113   10.42929141487548
H         1.05812258529766   10.16688727988432   11.45292040953952
C         2.67172781209587   12.37180434209632   11.90887886096074
C         3.75307320409546   11.59580888629706   11.49321474640403
H         4.22719972749316   11.83224971050563   10.54677762977247
C         4.20872909953206   10.54953587291373   12.27008204520513
H         5.04772173099901    9.95341486966869   11.94053709273440
C         3.58430837375973   10.26280004117842   13.47520625319896
H         3.93344129208092    9.44206198645493   14.08469315632672
C         2.51219359350352   11.03009054561805   13.89695050608979
H         2.02679690293958   10.80881776066948   14.83719779157047
C         2.05255454150349   12.08039055326464   13.11846674749884
H         1.21056767332442   12.66375530288712   13.46473319429183
C         3.51667093189546   14.83700364733287   10.96411300214467
C         4.09007651418369   15.45276141102759    9.85954508320148
H         3.73463736880987   15.19518468872103    8.87012175800656
C         5.10663902742989   16.37617476709471   10.03147055170276
H         5.55116876635772   16.85301753005442    9.17049486148247
C         5.55486895159125   16.68381343716362   11.30500608646333
H         6.35015034616702   17.40234909204716   11.43965627788354
C         4.98907413628588   16.06606475284848   12.40988730155468
H         5.34442706510948   16.30283441069035   13.40267474640005
C         3.97386364553029   15.14377637407754   12.24318492552630
H         3.54053802371976   14.65009512167042   13.10354715308741
C         0.77299952388856   14.53804063736754   11.50285481323871
H         0.95600301391017   14.72103515772488   12.56803905029526
H         0.74143706478206   15.50831158030062   10.98889938232061
C        -0.52156253683753   13.77297334758945   11.25624364017132
H        -1.39596565283401   14.32810331630581   11.61224343007820
H        -0.49725165820727   12.80556496054373   11.77551752894440
C        -1.35817256234696   14.89048997992081    8.72229451857711
C        -1.62229363939472   16.08453702395806    9.37998134976108
H        -1.42568542802834   16.19604670494920   10.43689512682041
C        -2.13826752810876   17.16131706847607    8.67776402554517
H        -2.33456243796204   18.08996893726124    9.19487854899461
C        -2.39740137994991   17.05547547224836    7.32329698937472
H        -2.79556263507338   17.90092891559978    6.78189654630771
C        -2.13746821358292   15.86527420028341    6.66115982171895
H        -2.33265719394541   15.78010541116152    5.60240990185120
C        -1.61768276848841   14.79273074795892    7.35618022087986
H        -1.39529516561483   13.86229740314329    6.84710926797291
C        -2.12008787979218   12.33922293329908    9.36482491039593
C        -3.30842948608092   12.67323084085207   10.00717029877262
H        -3.36679093509218   13.57536877181086   10.60030551430852
C        -4.41830756515630   11.86040874529950    9.87367383614674
H        -5.33922908457667   12.12081839547711   10.37526636484965
C        -4.35664986674485   10.71813127328298    9.09047139066635
H        -5.22806842048016   10.08851059653252    8.98669991865162
C        -3.18304902855959   10.39136908245817    8.43235472886253
H        -3.13942744288681    9.50967558697667    7.80917949137171
C        -2.06943723330071   11.20092037041768    8.56862216353113
H        -1.14673558983826   10.96478690351577    8.05049669315716
O         1.54459076153056   15.63365502201263    7.24777240011561
O         0.47476159027288   11.85375902271690    5.84882789529829
O         4.40276264383401   12.46558609996971    7.58527869313024
O         1.53502782356173   10.69930494819049    9.52447933398420
P         2.17496551483076   13.64206728166528   10.70409439462342
P        -0.63150791202180   13.39106675890162    9.44936050537259
Mo        1.51084176024756   12.86417493229793    8.57124382078733

