72
CSD_code = JOJPOO | q = 1 | S = 0 | Stoichiometry = C34H29As2F5NPd(1+) | MND = 4
As        6.92866935776190    1.30545799786790    3.74592872555084
As       11.57361885999327    1.48108329556976    4.57176292200873
C         8.61999425308473   -0.29892611527350    6.77193386200335
C         8.15307145308636   -0.89020635371386    7.97986701953949
H         7.41340659783964   -0.23331060350791    8.43934655605403
H         8.98280792097088   -1.03901511667661    8.67124993400144
H         7.69013347463255   -1.85277616432140    7.76090718112030
C         9.43665903587124    2.66455577530395    2.81963606206353
C         9.95742570539984    3.90417931067666    3.12686119780422
C        10.22894093510043    4.85321589154337    2.15426754849262
C         9.94596730951456    4.53618861400372    0.82438376692285
C         9.39154980225367    3.30000050093397    0.48665631808718
C         9.14483501828279    2.38626310832388    1.50100125816541
C         5.94867472683699    2.51203963303541    2.56944628728072
H         6.05268428355112    2.19935986562911    1.52862950202899
H         6.33458067022148    3.52775446769394    2.68578759239455
H         4.89109701072585    2.50506240177910    2.84665197221022
C         6.25721738170305    1.85241628417697    5.48830617660445
C         7.08062079123697    2.71804445779046    6.20697606214672
H         8.03631880083807    3.05731887146440    5.77446545230174
C         6.69570944329860    3.16483842357685    7.45890144263848
H         7.32861081277754    3.84395752033526    8.01063392412078
C         5.49297439890833    2.73924790971724    8.00241976679917
H         5.19226652745761    3.08595612418669    8.97924325238212
C         4.67515083064409    1.87255122727557    7.29536068427573
H         3.73979721469408    1.54341229807916    7.72241569475568
C         5.05475687360589    1.42942354267658    6.03851811914556
H         4.42159447354772    0.74746052858901    5.48006246020442
C         6.19766349281538   -0.45221583100951    3.37833315600592
C         4.87408765681670   -0.66649789960647    3.00754930677409
H         4.19364678705469    0.17319265861000    2.91490292415739
C         4.43090328018376   -1.95142562949050    2.74433926954809
H         3.40378584461916   -2.11753926537166    2.45640330045806
C         5.30470207848277   -3.02294167811705    2.84064551161162
H         4.95534723735299   -4.02156605894710    2.62820288959477
C         6.62735933444055   -2.81390030453156    3.19642927483448
H         7.30953906130084   -3.64879658778710    3.25857435625904
C         7.07269694723590   -1.53099115104439    3.46243558169815
H         8.11510856821023   -1.35037501307547    3.73026618518792
C        12.42499246301654    1.76126460650122    6.30520564954489
H        13.51314984894649    1.75803552976282    6.19453836251452
H        12.12232924549264    0.96768161663824    6.99282850119007
H        12.10677203703202    2.72365012789707    6.71450322468293
C        12.02429650221404   -0.33288952866175    4.04879103654351
C        11.10917705025345   -0.98149886095132    3.22011966915279
H        10.19462787693173   -0.45733120396783    2.89430983170666
C        11.35457511273178   -2.27126398087867    2.78240509378483
H        10.64597628464648   -2.76710591270176    2.13530839927430
C        12.51463815240074   -2.92129000327319    3.17277730524573
H        12.70741387443338   -3.92771704300101    2.83441000611674
C        13.43062534914287   -2.28061142578063    3.99149446582226
H        14.33625308806471   -2.78783111227115    4.28801850743734
C        13.18918503811998   -0.98871647820943    4.42786537429136
H        13.90855994985086   -0.48275444741449    5.06290010124942
C        12.62274040023052    2.54324476795000    3.33742762150923
C        13.27948248618261    3.70219319757223    3.73314817489147
H        13.28139268898625    3.99263452811380    4.77842058077329
C        13.91560518946511    4.49293840095945    2.79025558729050
H        14.41991323403079    5.39575740724203    3.09922507167988
C        13.89458036877699    4.13363772297791    1.45303807094360
H        14.38279452742621    4.75664461892302    0.71992153055716
C        13.24352873606905    2.97640999248565    1.05363584229996
H        13.23094175994766    2.69442739542066    0.01149709263829
C        12.60466059746805    2.18637160324862    1.99135668208384
H        12.08621599285087    1.27988539087612    1.68668403154091
F        10.23733080418614    4.10642912565295    4.44816776887939
F        10.76323683477241    6.03431631053894    2.46281802242938
F        10.21231886628838    5.42250963778855   -0.13424882390091
F         9.11812730087517    3.01493389032490   -0.78618597001378
F         8.58844554591153    1.16296652559625    1.26929937305622
N         9.00756070387208    0.15992811297068    5.79135988883835
Pd        9.23197783739500    1.38855255117246    4.24800142895426

