61
CSD_code = JOJSUX | q = 1 | S = 0 | Stoichiometry = C27H27ClFNO2PRu(1+) | MND = 9
Ru        6.79444900501105    6.68822989747409   11.09748941358477
Cl        7.71362317660544    8.44180969929866   12.34404879675356
P         6.48459734196067    5.45714967520950   12.98690843516705
N         4.95556167193598    7.73443483254154   11.60495078585986
H         4.21160805860546    7.09835743658353   11.90783492855156
H         5.21491582877068    8.35191949459819   12.38847790069485
O         5.79089443561014    4.05310039582190   12.61708485711635
O         4.87727718922725    3.43418199642446    9.90072238576180
F         3.49194936087925   10.65755757098855    7.16741953295653
C         6.06248899581521    5.72328397471804    9.18881418552042
H         5.05845087932944    5.45600317279727    8.88505341433880
C         6.65260188424278    6.92342537469128    8.71953189583927
H         6.08439916763026    7.57564625013299    8.06811928114166
C         7.95495673207611    7.24945359496755    9.07645112925315
H         8.41633445828576    8.16099297395732    8.71821376698428
C         8.71065774994355    6.33801433824598    9.86497091015578
H         9.74970350400761    6.56013398874899   10.08646916774492
C         8.17654083596706    5.09265786267280   10.22102109578353
H         8.81417487118160    4.35003989188749   10.69095698499320
C         6.82255357330644    4.77860664709552    9.90565593902060
C         6.23305268614468    3.43236246268447   10.26728665045374
H         6.78016553417826    2.65003157621115    9.70919192995991
C         6.41932583710429    3.10829770369303   11.77341331504982
H         5.93323660244501    2.15294908684971   11.98765495935240
H         7.48459550455415    3.01788121002613   12.01206533200645
C         4.28789760286369    2.16060712739468    9.73745030347677
H         3.30667930176061    2.34269234709228    9.30492031955350
H         4.16649014654735    1.63718719886085   10.68975023394857
H         4.87698067817668    1.53935260834284    9.05524579244290
C         5.32601032932560    6.02689785666292   14.25309281652991
C         4.16464514904386    5.33724645126070   14.58302951178073
H         3.91753417914383    4.42195280236099   14.06793702460298
C         3.34035779872112    5.83319518807576   15.57891191985442
H         2.44089685026333    5.29881755037758   15.84407458661252
C         3.66866812054044    7.00731914653678   16.23775343523242
H         3.02328960635830    7.38493935676658   17.01564125405450
C         4.82462195692337    7.69778429273359   15.90288276658675
H         5.07914051583893    8.61053383281635   16.41876918895954
C         5.65413811346182    7.21291975213551   14.90895917154011
H         6.56097182459296    7.73606427825962   14.63336317029576
C         7.98327430699553    4.98810319417608   13.90028277338086
C         7.87154562046080    4.01295566153463   14.88936121010449
H         6.90900028219674    3.56104567102994   15.08722820073788
C         8.99112478074459    3.64094038377953   15.60904280351886
H         8.91057089988417    2.88729526200299   16.37730578705850
C        10.21444354250953    4.24203761996343   15.34989214186525
H        11.08500036052587    3.95245698023108   15.91791634776499
C        10.32176113792725    5.21681899659744   14.37101120991393
H        11.27326952060637    5.68842607249615   14.17921164491600
C         9.20655227532462    5.59221673702938   13.64208774229015
H         9.27230249772177    6.36562887668946   12.88857474184911
C         4.54320646811030    8.50385438001573   10.47732133717646
C         5.20512758966354    9.69600375797888   10.18683641609732
H         5.99809302953061   10.03792502990945   10.83761398371239
C         4.85278889922958   10.42635358921302    9.06858887914769
H         5.34902524935705   11.35154083208251    8.82422136365090
C         3.83140022814212    9.95751996793093    8.25591971426337
C         3.15293465993201    8.78235602823511    8.53705663205407
H         2.35546743201563    8.45694887982387    7.88882661086034
C         3.51178284358694    8.05557674169329    9.65747371225982
H         2.99029131725546    7.14016443931959    9.89743825783579

