67
CSD_code = JOJTEI | q = 1 | S = 0 | Stoichiometry = C29H32ClNO2PRu(1+) | MND = 9
Ru        9.06143532957998    0.59935731260016    6.17588107780949
Cl       10.23359384387398   -1.42913525616677    6.33719545224345
P         7.24517741611379   -0.43734156468546    5.27409436855481
N         8.40334459630943   -0.05358419688658    8.12046777739906
H         8.38929319883717   -1.08304946079336    8.09231723206432
H         9.14449338041097    0.19240249960920    8.78666624762820
O         6.11667242457875    0.67503779178044    4.97767889200799
O         6.33234867622187    3.63930124077532    5.34027508915209
C         8.76541747813340    2.84080138863288    6.39829885655769
H         8.04526450601668    3.40242961870536    6.97851889803644
C        10.03849886277398    2.54524265205777    6.94528305406263
H        10.27698241566702    2.89791685229707    7.94259700495551
C        10.99783038727666    1.87546059561176    6.18311807460296
H        11.98890371840443    1.68807092919794    6.57804314963074
C        10.68634527090868    1.49812366270188    4.85073487229107
H        11.44644492976744    1.02340468032001    4.23944050842560
C         9.44561704718700    1.82279697950088    4.28850654390592
H         9.25994740006287    1.62948478124469    3.23600610786096
C         8.45914367462154    2.49621296170244    5.07124114514411
C         7.13112820718512    2.89309719788780    4.45597517019987
H         7.33422432882477    3.48067220809783    3.54367800266258
C         6.30543615115863    1.66651723789294    3.98974699256395
H         5.30438773243903    2.02937254363332    3.74161267085819
H         6.76726755072322    1.23050261603314    3.09599600355879
C         6.49830414615017    5.03913946182644    5.25300358727448
H         5.80566862247361    5.46752179103714    5.97313142656349
H         6.24931055409870    5.40253824982837    4.25065149553511
H         7.51957236503365    5.34754120481619    5.50061153295568
C         7.50568641522110   -1.24479999778350    3.66455755879893
C         6.38378702648793   -1.60587028251014    2.92081386397728
H         5.39578926569323   -1.39581418049879    3.30774623648546
C         6.54659336635556   -2.23301541983032    1.70023981023247
H         5.68081041433042   -2.51472647692954    1.12076074705596
C         7.82096208301675   -2.50795681882356    1.22565524147216
H         7.94375133447092   -3.00277563900302    0.27460219152840
C         8.93496731815002   -2.15782094270141    1.97120632556368
H         9.92431335416505   -2.38341524752457    1.60389252840518
C         8.78105937242153   -1.52423593523103    3.19245921726644
H         9.64162209309899   -1.26564496826637    3.79408073498263
C         6.26652506716491   -1.65183868033522    6.18930512664815
C         6.94948666777896   -2.78184382657799    6.63526604872806
H         8.01000928710721   -2.87231204108941    6.43321119204013
C         6.26347570984480   -3.77365861476008    7.31222183616816
H         6.78625152419056   -4.65412061852326    7.65280879010136
C         4.90337376571284   -3.63580819686666    7.54892928209748
H         4.36859573608390   -4.41030925804107    8.07665768805536
C         4.22793603284804   -2.50887505221814    7.10782402149399
H         3.16941804244614   -2.40778369525278    7.29236880331557
C         4.90402479494424   -1.51196514916124    6.42555270886302
H         4.38505802144761   -0.63170938643638    6.07836574078483
C         7.11215808429299    0.42330738497625    8.65299039098143
H         6.37811714322978    0.35321310925551    7.83902096186768
C         7.20936445443420    1.86206456129834    9.09963773169541
C         8.19040834916600    2.26878116977901    9.99805008408364
H         8.90333659417966    1.55827956618194   10.39542786735780
C         8.25784872509920    3.58694491620441   10.41499298316000
H         9.02404091450327    3.89039646814139   11.11223011769336
C         7.33704524276813    4.51104700458653    9.95009170779830
H         7.38676102183921    5.53656383626302   10.28167611987810
C         6.34735909069555    4.11042840145390    9.06814357211619
H         5.62000780509585    4.82326895085121    8.71132619832586
C         6.28526290129911    2.79415729343768    8.64244247705457
H         5.52230065528402    2.48966130391206    7.94174510299141
C         6.65657923002385   -0.47505858597555    9.80514612339125
H         6.53080767389841   -1.49949989287791    9.46074440157262
H         5.70411295268248   -0.12401959301272   10.19152002291201
H         7.37813825370791   -0.45857144538735   10.61861720854736

