71
CSD_code = JOJTAG | q = 0 | S = 0 | Stoichiometry = C33H30MoO3P2S2 | MND = 6
Mo        5.84398754017067   11.39498089046476    4.68041380953904
S         3.58678637474089   10.88426187822804    5.19729106822929
S         6.31686700351223   10.16050714420781    6.68701496303994
P         7.64126753803255   10.02301504656796    3.95853713367886
P         7.84975176089638   12.57029565609634    5.16547563327366
O         4.98932910471146   11.72267464951859    1.73516508190464
O         5.03529646683078   14.24621492787339    3.81789894571124
O         2.37120628230484    8.86918538270569    8.43251142953375
C         5.31477396819890   11.58518383747639    2.83376803754556
C         5.29259730932913   13.17931518861275    4.17172475846893
C         3.63447353720603    9.92217924954741    6.63956020507306
C         2.30302009979608    9.43614971643421    7.14786240825762
H         1.59943349777671   10.27030689393580    7.21362708721925
H         1.89864911635463    8.70254518109402    6.42689202553583
C         3.44806685054786    7.97150368359002    8.55834358970268
H         3.39101310799447    7.20166826039730    7.77262119774940
H         3.33068593601571    7.49485765433193    9.53371443042933
C         4.78814029670611    8.70317368716618    8.46420177855540
H         4.93401579460847    9.32395178928691    9.35373403638623
H         5.61404127890405    7.99053530378673    8.40819633146705
C         4.78314948117893    9.58017334533001    7.24536013131540
C         9.09894125528516   10.07652056323330    5.09612225488752
H         8.89061311357281    9.33150766941020    5.87285464962240
H         9.99850374868299    9.76312252587605    4.55715542247088
C         9.24758581553700   11.47024231324686    5.71020186551570
H        10.19426917560988   11.94082376996856    5.42552029418888
H         9.21259490853765   11.41311429193728    6.80202652002901
C         7.26683804705848    8.25067406209972    3.87116564789519
C         5.96000600415344    7.82835759430613    4.08038107270232
H         5.18527415986531    8.56799089945680    4.27405709403118
C         5.65392962217735    6.47963821770939    4.03842265252224
H         4.63809241605728    6.15162550892875    4.20340615330306
C         6.65125810497847    5.55271793707478    3.78458180076358
H         6.41419970619026    4.49942146921449    3.75718501015609
C         7.95362617902982    5.97288365773308    3.55947285323319
H         8.72687622084445    5.24714815297858    3.35348539888800
C         8.26481676400160    7.31877291363208    3.59738198551261
H         9.27632471633082    7.65413220293019    3.41049574481567
C         8.34537994982874   10.31198002404222    2.31623676435730
C         7.57699592105231    9.89601042466184    1.23017367163416
H         6.64958093777416    9.36670269402114    1.41276300170917
C         7.99537401978973   10.15986038167588   -0.05896507245913
H         7.39568612056420    9.83790604315410   -0.89708498022171
C         9.18246524609173   10.84345309983027   -0.27470410019538
H         9.50890253584868   11.05341571393570   -1.28239125048458
C         9.94926336507927   11.25836726093454    0.80057525232066
H        10.87246377874038   11.79410472623065    0.63353013416765
C         9.53387922380059   10.99847373774977    2.09460953700010
H        10.13417557826878   11.34192497784294    2.92551774536940
C         8.65493170187616   13.60157557594788    3.90580560244554
C         8.15940749126066   13.65765018989848    2.61052881725621
H         7.27572011023893   13.08747312037154    2.35209295977159
C         8.79759356656523   14.43351206459056    1.65778431065251
H         8.40738690941119   14.47250832075791    0.65199492948927
C         9.93115500838421   15.15296130426556    1.99463434396630
H        10.42904720775222   15.75734905949124    1.25101772289450
C        10.42609845886442   15.10579622062679    3.28969083162135
H        11.30531552804814   15.67501571463965    3.55436318722374
C         9.79162154673103   14.33476194246614    4.24394702326143
H        10.16222524650584   14.30847351030881    5.26142534329770
C         7.63196614915942   13.74507732916720    6.52663022922407
C         7.38825890922090   15.08828662232252    6.24539179151452
H         7.43841950199918   15.44066278500578    5.22382827274120
C         7.07857808647789   15.96538779872715    7.26828578390697
H         6.89323337531522   17.00537846479986    7.04357026743951
C         6.99672557091152   15.51151730297871    8.57452604961571
H         6.75317491452265   16.19847155885556    9.37139578183218
C         7.20972731588613   14.17144490855740    8.85585489481632
H         7.12623376292262   13.81202354595976    9.87115522801662
C         7.51610661188253   13.28807572601843    7.83793432818099
H         7.64440404538645   12.23662473371858    8.06005109450219

