76
CSD_code = JOJWEK | q = 0 | S = 0 | Stoichiometry = C25H47NNiP2 | MND = 4
Ni       -1.69802306478312    4.46764269309116   -0.26732371961692
P        -0.05306373111511    3.08227250030341    0.13527596953857
P        -0.79448131168781    5.15886939610136   -2.17197181956076
N        -3.45188042056679    5.22190615950283    0.13417055805886
C        -3.19619213818541    4.29183631672548    1.03397596676333
C        -3.68813514468393    2.92015758211870    0.86107254472697
C        -4.44364077967386    2.55319652237965   -0.25757277370760
C        -4.92961646199062    1.26742176174070   -0.38528186666524
C        -4.68694427656921    0.32414239957102    0.60156878555061
C        -3.95914857569895    0.68156682865647    1.72584219448984
C        -3.46893049419213    1.96515661796736    1.85771929396609
C        -3.45315309615484    6.61863499649795    0.55279403230249
C        -4.67137208172222    6.86151366589389    1.45336266637854
C        -2.15518098301644    7.00470652265333    1.29053895985466
C        -3.58755964345831    7.47226649096705   -0.71266842166444
C        -0.17280973248835    1.26541864020699    0.57105584974760
C        -1.11171612927351    0.56529039816740   -0.40913129519912
C         1.14685127376240    0.50723993124316    0.67624221719468
C         1.20689302149513    3.68718728886298    1.37494912957308
C         1.67962067381320    5.08060933332214    0.97133824893468
C         0.54394399298789    3.73225733495484    2.74797206700593
C         0.96146054367371    3.00876977140411   -1.42702120638619
C         0.83002785019850    4.24834164288163   -2.31698879886578
C        -0.29766186346268    6.80555955505667   -2.92223641339726
C         0.53919805408198    6.73338588834006   -4.19484516549569
C         0.40187074196842    7.65509576958414   -1.86332596384675
C        -1.80014098193834    4.39392824420447   -3.54313347940397
C        -2.09695250046489    2.95802700094925   -3.12223210239266
C        -3.11125723842346    5.16101570758284   -3.67873485131906
H        -2.96549911728122    4.54616986140346    2.08193095161994
H        -4.64874033012248    3.30095951608905   -1.00933894466230
H        -5.51018931773316    0.99653272136331   -1.25623377207214
H        -5.07009595475587   -0.68100422069358    0.50014397256544
H        -3.77898424616100   -0.04591460370184    2.50540646928373
H        -2.90598236794721    2.24113813656322    2.73997264680815
H        -5.58341879069624    6.60571818758418    0.91889464828359
H        -4.61843351362196    6.24685427070240    2.34965778289936
H        -4.71635360838852    7.90751228602094    1.74849793651055
H        -2.18419452750391    6.70493119615043    2.33595786997620
H        -1.31328876141857    6.49095005994259    0.79923515814166
H        -1.98849244938652    8.07867317868605    1.24795472212151
H        -2.73349549335629    7.28954914679539   -1.36133542613789
H        -4.49281653665322    7.19896988209294   -1.24830783903094
H        -3.63000800084454    8.52999223966703   -0.46311929920725
H        -0.66474969302376    1.25633324197808    1.55168137566387
H        -2.01633182251019    1.15097704228927   -0.55540807859118
H        -0.63334877220429    0.41445322157450   -1.37483363363026
H        -1.40062807790055   -0.41098944819621   -0.02355740899375
H         1.70285765298841    0.55379274069026   -0.25732873790747
H         1.77367154277961    0.89148572529405    1.47663062627869
H         0.94143169446354   -0.54091842449586    0.89101489750149
H         2.06735822309301    3.01063258570638    1.39793772231423
H         2.34076251435857    5.03691947829514    0.10924922282584
H         0.82118138963041    5.70443514355234    0.71877240316207
H         2.22123799255067    5.55442673911514    1.78924381582968
H        -0.35239009551752    4.34991381563090    2.69762000245021
H         0.25774456624735    2.73665233748791    3.08068485215503
H         1.21723684877330    4.16005697882903    3.48983421529891
H         0.60293450603316    2.13377597808881   -1.97160082116043
H         2.01203889749708    2.83649663668720   -1.17577121447288
H         1.59294483591885    4.97621228266164   -2.03197748936951
H         1.00009667418121    3.97893601414204   -3.36297678309490
H        -1.24722579407856    7.29645783722392   -3.16704427567759
H         1.52874392807077    6.33001743059554   -3.99616723935142
H         0.05930781707384    6.12212878908465   -4.95447030403020
H         0.66434205733449    7.73579026475005   -4.60286106162195
H        -0.21333395688194    7.72718906611967   -0.96886064015279
H         1.36220743900909    7.22413552135142   -1.58605621399862
H         0.58003558696137    8.66193377248704   -2.23838778604138
H        -1.24941449087083    4.40492981731945   -4.49061742489788
H        -1.22284359260628    2.32118576308504   -3.22979860508625
H        -2.40769317431004    2.95892863527735   -2.06964776386969
H        -2.90300954800815    2.53256409699697   -3.71808537740051
H        -3.59300070270462    5.20885114066810   -2.70223705376808
H        -2.95166789588335    6.17363915178409   -4.04266950076041
H        -3.77820903702098    4.65400780432794   -4.37483920322002

