30
CSD_code = JOJZEO | q = 0 | S = 0 | Stoichiometry = C8H11AsBBr2NO5W | MND = 6
W         2.53181651840527    8.48084090336919    5.45115105113617
Br        3.93825930244573    8.87105729346709    1.69515502554651
Br        0.89913960806447   10.52504376347835    2.44310971522504
As        2.01871351903280    8.51568595877117    2.94181712721201
O         2.39575636183175    5.34836462493934    5.47607606319688
O        -0.55438966000702    8.70462073915259    5.96680285201388
O         2.85214058053288   11.60833086552146    5.44561630025639
O         5.60765116572769    8.16253402284176    4.89684787761485
O         3.11471917368943    8.44170145885628    8.52380929750526
N        -0.29372380758775    6.63316567845732    2.05205599255812
C         2.42595837320775    6.49392362627741    5.46280999325977
C         0.57851450739396    8.64540536482581    5.80015820626616
C         2.71780599381149   10.47889349282874    5.44341734593318
C         4.49427997848210    8.29567341051258    5.08861276196178
C         2.90416144691604    8.45904719067487    7.40278087418084
C        -0.79536021409011    5.75536934903887    0.98678381315614
C        -0.17949944401390    5.85471935468597    3.28854463764727
C        -1.26308828312700    7.71415345378988    2.26303382780700
B         1.14437477805074    7.19850479709120    1.58584749312302
H         1.00758286919555    7.76354144030435    0.54662622378504
H         1.89374833150655    6.27399734060873    1.51736987868638
H        -0.07911869487896    4.95812649389314    0.80124842818143
H        -0.91704644171823    6.32636592665926    0.06925299735508
H        -1.75525576191646    5.31869008157149    1.26872807959347
H         0.16862542017814    6.49503777565773    4.10205579074142
H         0.53565820053502    5.04481417513874    3.15390872048330
H        -1.14684470806446    5.43228187465363    3.56869306062620
H        -2.25940162715423    7.30501486332786    2.44265563208346
H        -1.29510839283692    8.36241431568956    1.38808605752514
H        -0.97866909361585    8.31498036391474    3.12854487532176

