30
CSD_code = JOJZAK | q = 0 | S = 0 | Stoichiometry = C8H11AsBCl2NO5W | MND = 6
W        -0.61765968853448    4.09342099541538    1.99353820262821
C         1.21604588291064    3.74880199940326    2.72212038383806
C        -0.46603402481807    6.00969289434580    2.50803628874766
C        -2.44269026153447    4.34125211733082    1.24202482955143
C        -0.77191695969028    2.15572687710171    1.51813440792152
C         0.12897700016238    4.48954860816877    0.19764770148350
O         2.24979722119894    3.51581214593335    3.13764033559193
O        -0.39856004777512    7.10637751636913    2.83410339151516
O        -3.48374537402652    4.44225934871403    0.77487979022182
O        -0.86681130664710    1.05411402860013    1.24783504729222
O         0.55428084669620    4.72198055137271   -0.83672771361514
As       -1.47942819091107    3.56766884840894    4.31685393961825
Cl        0.00538815010083    4.26211905873455    5.70403714908046
Cl       -1.28410620574456    1.49551442986571    4.69029690529165
B        -3.25483001824218    3.87652155226014    5.35834465057365
H        -3.06669625553404    3.59917430351011    6.49944105723623
H        -4.07814084650314    3.19058321690605    4.84264206523376
N        -3.76051531203265    5.40817711852041    5.27956313503431
C        -2.75870245687975    6.32541420338744    5.82964877068166
H        -3.14303901041614    7.34760583063710    5.84837445877014
H        -1.85610079683902    6.29662498829497    5.21785360591352
H        -2.49714742403379    6.02005387868790    6.84125375159574
C        -4.03924391134443    5.79416337168294    3.89423046316510
H        -4.77209396579114    5.11591103543686    3.46098065827883
H        -3.12060780810535    5.73609310726631    3.30655149331064
H        -4.42564141670164    6.81482131661231    3.84884394263991
C        -4.99531773563392    5.53051337454365    6.06303361367185
H        -4.80000851756471    5.26099801074496    7.09822993898298
H        -5.74701655848688    4.85059726669382    5.66907433333107
H        -5.37813500744932    6.55225800508849    6.02321340241672

