86
CSD_code = JOKBOB | q = 0 | S = 0 | Stoichiometry = C32H46MnN5O2 | MND = 5
Mn        1.57036445421895    5.79512686609167    3.17944204525661
O         2.73069361890310    7.09059404127630    3.79515189981531
O         1.11178836664420    5.07631480795605    4.72681744282454
N         0.95154095793601    6.94375798759262    1.83355519780460
N         0.25054979166898    4.56592424832504    2.40760148714899
N         2.98470368010006    5.01365720886252    2.22645090916614
N         3.25753017635706    4.41452632292069    1.25582418787875
N         3.62403126368448    3.83832083138573    0.34737857085569
C         1.26055535000529    8.20922497179715    1.66779448931928
H         0.73783595582563    8.76271187628741    0.88575223195248
C         2.23451361095621    8.92889939246822    2.39401020431848
C         2.96079962160150    8.31044845949697    3.46433762105349
C         3.97033390871786    9.08821499673522    4.12288229370094
C         4.18237195723517   10.37684532249608    3.70699000889720
H         4.94056105521620   10.95931402479305    4.20129272518814
C         3.47218466903011   10.99669505333885    2.65795703000425
C         2.51124031798080   10.26092445144835    2.02087436003763
H         1.93517127813243   10.67230413194013    1.20707848314941
C        -0.40984975644368    3.60157259449811    2.95497578369278
H        -1.15257236766574    3.05710398027584    2.36703906696216
C        -0.24996690650149    3.19770554199802    4.31921583236020
C         0.54703628962189    3.98885223524462    5.18800788135128
C         0.68523385054093    3.58104810227251    6.53794307095932
C         0.03350371962027    2.43149407521018    6.94036976478416
H         0.14880050208162    2.11111423967364    7.96134940529228
C        -0.76975568843606    1.65088332775405    6.10129457770206
C        -0.90419446434435    2.05525007428192    4.79114931686265
H        -1.50071499646130    1.49688251459144    4.08769127502239
C        -0.07085158513457    6.42264515495341    0.92952121351733
H         0.11225307554702    6.75203433823147   -0.09965112831890
H        -1.05429915584426    6.79774106036748    1.24600959741786
C        -0.04591591121841    4.89726432279167    1.02572423467063
H        -0.99843191423003    4.46263925799800    0.69832713861281
H         0.75724408740554    4.50036162302560    0.39406320649410
C         4.76388310945458    8.46338746168533    5.26207063209850
C         5.80526821161776    9.41733780380571    5.85704672313810
H         6.53767491917151    9.71811891691086    5.11119843827916
H         6.33644996797409    8.90714864316975    6.65818468253757
H         5.33626102582972   10.30355809284931    6.27976653060798
C         3.79143974356193    8.06813918094352    6.38057009634730
H         4.33681622116988    7.62784133858755    7.21279455463599
H         3.07335007764430    7.34244523648896    6.01509092805454
H         3.25410504908298    8.94389984876512    6.74199568683276
C         5.50315559640770    7.22210008271207    4.74194373099911
H         6.20304513191414    7.50479888587886    3.95794552132830
H         4.80638429938697    6.49436828778640    4.33479334461713
H         6.05940124972542    6.75369950765423    5.55138652431679
C         3.81824818076597   12.42970272296343    2.28606408246247
C         5.28896997092055   12.49143673964198    1.85010031284520
H         5.45676433752103   11.82899668028597    1.00361492105921
H         5.95492641971536   12.19063532542840    2.65384894205967
H         5.54999268867603   13.50524142027592    1.55353594281970
C         2.95808184774227   12.95915647563054    1.13539703944087
H         3.10198149657586   12.36541984597258    0.23583426443074
H         3.24377402759637   13.98474144638295    0.91029148696176
H         1.90364588925709   12.95457651013153    1.40174042448930
C         3.59723202774160   13.33754389255174    3.50410272585392
H         3.81681963354981   14.37131612474380    3.24533112095329
H         4.23750479445981   13.05278078932473    4.33414341088347
H         2.56253784630747   13.27645264837694    3.83505373404822
C         1.56753146451395    4.38760433243916    7.48088109393182
C         2.99518365504482    4.41510568263448    6.91600793548182
H         3.64409381611196    4.99275246342964    7.57039377030429
H         3.02130948544323    4.86128614576304    5.92462471192123
H         3.38722739769102    3.40208854727617    6.84439538134864
C         1.00545673434404    5.81129785843323    7.59822497002695
H        -0.00378084800760    5.78423343806316    8.00695135888662
H         0.97114619839535    6.29765464807999    6.62734294015019
H         1.63152185283217    6.40871819177112    8.25742375147673
C         1.63161222437408    3.79247325978311    8.89148626448415
H         2.27528345848100    4.41521292208665    9.50940063789840
H         2.05193438183055    2.78931700819086    8.87843338458643
H         0.64821839247479    3.76582830389707    9.35643350836876
C        -1.43520331223699    0.40427696590313    6.66312055236090
C        -0.34919778062962   -0.56107628690570    7.15850680134343
H        -0.80418164594070   -1.47314516977240    7.53879431498440
H         0.24232451852386   -0.11908320336961    7.95523473692059
H         0.32049259318402   -0.82289314109182    6.34218565024359
C        -2.35130651727485    0.80112059648354    7.82920835753737
H        -3.10951664096456    1.50360837334531    7.48944359965916
H        -1.79127765081607    1.26770597570293    8.63461454386404
H        -2.85046250160339   -0.07903959819817    8.22873986598885
C        -2.28252394291089   -0.32693891565880    5.61844950698182
H        -2.73734342975118   -1.20556456804686    6.07118677995880
H        -1.67129016372455   -0.65899976985759    4.78268711925135
H        -3.08145431572276    0.31061459237595    5.24686123401560

