96
CSD_code = JOKBIV | q = 0 | S = 0 | Stoichiometry = C36H52MnN5O2 | MND = 5
Mn       10.91702636235514    1.43275163284333    8.94454176138339
O        10.49591923302915    2.14194357341338    7.30832611096504
O         9.30974009629159    0.88706337217387    9.44704727936038
N        12.67682546880684    1.09530348083050    8.36127020681981
N        11.56162467352577    0.45523996430751   10.57133985306976
N        11.28046459597678    3.16601863659986    9.63806244329241
N        11.93061496054123    3.65142600118046   10.48494766397056
N        12.52503601433632    4.22382236352155   11.26776250875903
C        13.06359553621138    0.98534072250002    7.11802656455372
H        14.06440863143332    0.61664057098155    6.90343446031494
C        12.30378412051970    1.37251937745585    5.98908346458573
C        11.02954859439604    2.00844445788664    6.14607715808306
C        10.40308392282674    2.53458025697838    4.96703178512362
C        11.00484155898619    2.32602870584551    3.75322973886210
H        10.52293729049314    2.70480068178288    2.86850404138024
C        12.23149921720872    1.65227611990914    3.58256982660093
C        12.86880829060105    1.20705599854525    4.70791137513072
H        13.82717959203137    0.71457411923649    4.65396812041600
C        10.84874740723505   -0.03074312198997   11.53518852950552
H        11.31938624742926   -0.65191791961977   12.29778032984063
C         9.43660896051627    0.14077870223497   11.66902891075803
C         8.68786599601415    0.63298106687172   10.56777029978687
C         7.28468955192828    0.77901410254963   10.71964290181612
C         6.71879789419618    0.42108000038599   11.92582096903977
H         5.65623721028977    0.54292857909005   12.04641336500431
C         7.44015826466641   -0.09699060894472   13.00943756762202
C         8.80066102895265   -0.23567050489523   12.85815568795891
H         9.42035965273703   -0.61690751879452   13.65392064212526
C        13.64211670733748    0.93693001281027    9.44459505245662
H        13.77131231424976    1.94674123671675    9.86460860291266
C        12.97193484299562    0.07124638633351   10.51968539548170
H        13.01224723285168   -0.98095108392577   10.19255364731362
C        13.76936235603578    0.21062146276902   11.81939645018163
H        13.32343833731980   -0.37307643545558   12.62514746394576
H        13.77419232395005    1.25893025394206   12.12335283945851
C        15.19396628290935   -0.28668170333094   11.57721232210395
H        15.78162723012838   -0.16369087465237   12.48812854684203
H        15.16527179597100   -1.35356739028817   11.34086259569415
C        15.86362422219496    0.46754934626352   10.43258027831491
H        16.85781731811112    0.05438995269740   10.25310949528873
H        15.98181175585934    1.51552097927871   10.71447813005297
C        15.03896200658047    0.39177893264523    9.14663730177249
H        15.53131231431595    0.99371039918546    8.38117016904466
H        14.97944900837385   -0.64211373898186    8.79729615698850
C         9.08888715982876    3.29146482819642    5.09677094611253
C         9.28629886875946    4.48477461575910    6.04307331664242
H         8.35092172546281    5.02903717757565    6.15548906886290
H        10.03528777822018    5.16293340845491    5.63835300420680
H         9.61358421465265    4.15553018141483    7.02552567845923
C         8.57723258135400    3.83375744369226    3.75783124442230
H         7.65368924218696    4.38344013845276    3.92852073590309
H         8.36012024447584    3.02876691340485    3.05860245952252
H         9.29421307434497    4.51769959631100    3.30889112908377
C         8.02781652163585    2.34067767985308    5.66211669171546
H         8.33153707191006    1.98401048537154    6.63995826596789
H         7.89257230299931    1.48616094253457    5.00032811925284
H         7.07548388411252    2.85738550901930    5.76072656170595
C        12.78365861163018    1.47766959284608    2.17693061808690
C        13.01212247578216    2.85954848649349    1.54875937813878
H        12.08344279064284    3.41682078978361    1.46510094432741
H        13.43526541111023    2.75275201068804    0.55203325117146
H        13.70290571858738    3.43874353199548    2.15783323794178
C        14.11465966965355    0.72094484910741    2.16172057206035
H        14.87839528678211    1.26326345633451    2.71416236597633
H        14.45795881969540    0.61005920672300    1.13508984822733
H        14.00337847046867   -0.27328163926868    2.58835230813113
C        11.77424359524123    0.68367713182839    1.33569451095659
H        11.59517166962093   -0.29083130005173    1.78539219989596
H        12.16007113764942    0.53414211897824    0.32938250695688
H        10.82329947185543    1.20340161621931    1.26062425317022
C         6.46143109037652    1.34795259460121    9.57334038136313
C         7.00310601388701    2.74087757853309    9.22191907253557
H         8.05626279725406    2.70437611243421    8.95147760235510
H         6.89713994238896    3.40595542673062   10.07695288163709
H         6.44630254890491    3.15895498177197    8.38647974975140
C         6.56930833253182    0.39817372512928    8.37250358475727
H         6.16424723590026   -0.57936360058459    8.63098168358553
H         7.60495605365045    0.27182307023281    8.07038082442566
H         6.01061700965287    0.79339131433391    7.52716622364194
C         4.97628463469679    1.49723379568242    9.92022407805881
H         4.45361588998534    1.91750721156731    9.06339655510643
H         4.83363498715423    2.17143260928561   10.76169660557312
H         4.52198139770618    0.53504784384642   10.14772794382266
C         6.69748771124225   -0.47011427423710   14.28282899742958
C         5.99398899466061    0.77597675692546   14.83831889646052
H         5.48473875358594    0.53458832975181   15.76892864854785
H         5.25769206292372    1.16214736253845   14.13930866651309
H         6.72132454352048    1.56052289878512   15.03504821610665
C         5.65985205512985   -1.55466975305376   13.96056284046574
H         6.15071406329851   -2.43365201895893   13.54782664532731
H         4.92857416077260   -1.20278323643893   13.23841259480292
H         5.13082502189789   -1.84734326041915   14.86501494337780
C         7.63337276184405   -1.01144108671157   15.36686505937540
H         8.37483002177806   -0.26766877767240   15.64859669493532
H         8.14032688127241   -1.91333242676913   15.03152210931362
H         7.05477081258311   -1.26186249793591   16.25364726978124

