48
CSD_code = JOKFAR | q = 1 | S = 0 | Stoichiometry = C16H21CoN7O3(1+) | MND = 6
Co        3.91734591091613    6.58687179198923   22.64321653480939
O         2.80472193631989    6.36757620977890   21.23093736083765
O         4.90612538342748    6.51010091060490   21.12836259095493
O         3.77849446459607    6.21981334845632   19.20092371275784
N         5.55823979980502    6.86570927073207   23.92540782663763
N         2.60851676404682    6.59091815349286   24.05200300425216
N         2.78704541148597    6.80670543605331   25.36073028828938
N         4.07578390885519    4.67325871261791   22.74779934285568
N         5.21245903588417    3.97572854613498   22.87963560230735
N         3.71506747030301    8.44402874026766   22.37813498901380
N         4.74169304527632    9.26515701786693   22.14604451527563
C         3.81865763462869    6.35064520982951   20.38804378366069
C         5.24242110938067    6.57930593539642   25.33953067083323
H         6.11033485892228    6.82283939523862   25.96705535046457
H         5.03014338464451    5.51461949137764   25.44171501394325
C         4.02204871154249    7.32400786002631   25.88678297826575
H         3.99988536082473    7.19859608980995   26.97202614989630
H         4.07481743365691    8.39802682046655   25.67671439300781
C         1.64092722931467    6.60445963760904   26.03642016332047
H         1.57867398429422    6.73218257734806   27.09802079843102
C         0.68220720963822    6.23576419065107   25.12117317254969
H        -0.34262092885926    5.99625198821306   25.31019266979726
C         1.33804948465822    6.24310327595730   23.89090170485205
H         0.95332664459138    6.02978814137387   22.91336162383510
C         6.62493235925179    5.95143922983485   23.44831923108681
H         6.78289895775755    6.16704387018979   22.39047642174729
H         7.55272411566371    6.16016698941823   23.99815713095207
C         6.37432013997798    4.45369522871445   23.58199576406090
H         7.24622153279054    3.94821854968676   23.15606234566987
H         6.30930253759030    4.15039102742999   24.63530628777061
C         5.04589648894528    2.71083531928382   22.45689261423936
H         5.84274104890161    1.99567115557161   22.49066898206610
C         3.74759736833638    2.58501514403772   22.02122128301950
H         3.27505913025212    1.71970949156347   21.60762276217158
C         3.18107639267927    3.84040161287775   22.22012574491739
H         2.18811641844263    4.16475713115428   21.98434996146971
C         6.12708627486227    8.23315128531989   23.83920172191842
H         5.56692994205780    8.89606084922800   24.50089061047051
H         7.16645383299121    8.21630434860396   24.18963507723934
C         6.08510024878668    8.84840768014010   22.43915121807027
H         6.73359597851124    9.72562277066076   22.40467707141845
H         6.41000345699157    8.13402250949198   21.67697004829830
C         4.31041806043906   10.44511000869207   21.68051519920391
H         4.98528169068890   11.24033485519402   21.43604709520498
C         2.93553508904955   10.37903025218283   21.60028500182664
H         2.26446413301209   11.14006556560207   21.26267658136696
C         2.60811683835727    9.10125253175274   22.04359290597598
H         1.64406271551027    8.64003384207634   22.12122469898729

