112
CSD_code = JOKFEW | q = 1 | S = 0 | Stoichiometry = C54H52ClP4Ru(1+) | MND = 5
C         2.86803883842326    2.67058729841259    3.33049954104924
C         3.08344363695790    2.49720786528482    1.96580926289822
H         3.06468502958333    1.50718854990710    1.53657054330566
C         3.29483081788981    3.59133602352185    1.14542169068115
H         3.45534371071207    3.44435841794747    0.08773951622663
C         3.29261958946713    4.87159739807329    1.67439795984936
H         3.45556457002385    5.72296205435091    1.03193572141104
C         3.06638081491358    5.05373217817943    3.02884796612836
H         3.04561866188466    6.05000943535442    3.44484489944377
C         2.85656330478370    3.96205558558156    3.85227659527074
H         2.66788997076032    4.10967552950381    4.90604765914817
C         1.33458949990929    2.00491063815849    5.53547395011682
C         1.76638140291605    2.55418579062807    6.74099396005745
H         2.81108998948212    2.46372846179644    7.02108799769352
C         0.88307676949817    3.20954802099067    7.57870366907301
H         1.23890897975519    3.63543901470904    8.50521188053979
C        -0.45167023831108    3.31025662447671    7.22333472731129
H        -1.14923674473026    3.81387051884992    7.87484615118458
C        -0.88979695133104    2.76745021848352    6.02616150352664
H        -1.92925553496370    2.84947654526490    5.74635268610826
C        -0.00444864893649    2.12646679604996    5.17732401192045
H        -0.36538625031508    1.72868847313037    4.24136114193255
C         1.64904974657195    0.12687812105091    3.36562088702519
H         0.93379172483152    0.73866713391256    2.80701447991297
H         2.35322210168010   -0.31149985051676    2.65029891834391
C         0.93177448526245   -0.99485100207454    4.11303454131840
H         0.41575506046426   -0.59619007454099    4.99327391653194
H         0.17308309014875   -1.42112942792494    3.45065040771446
C         1.88469883813247   -2.10780543907210    4.54017083521446
H         2.56113228779093   -2.35336422197472    3.71650571744414
H         1.31110953019699   -3.00065000763152    4.80704533761494
C         1.55203938372591   -1.62244109621399    7.27076606913166
C         1.16792729182193   -0.46414004520512    7.93030277791240
H         1.69287153232705    0.46064168248947    7.74264749820259
C         0.12427697791990   -0.48779185341029    8.83903748143478
H        -0.16582366972342    0.42333374104954    9.34086081152306
C        -0.53689469916982   -1.67373232086139    9.10303653239624
H        -1.34811271255338   -1.69584546339762    9.81452653608097
C        -0.14874756145269   -2.83876173988457    8.45829875293639
H        -0.65508083320836   -3.76838515140641    8.67057986037883
C         0.88733199322612   -2.81720270795794    7.54568228366254
H         1.19066615619671   -3.73309813965314    7.05671383801702
C         3.68310536910323   -3.19820265651794    6.48295953509295
C         3.78917322385033   -4.29165297332032    5.62958112005023
H         3.37646973702869   -4.25468446335091    4.63346897039096
C         4.41803395365271   -5.44785437621895    6.05977838284215
H         4.49330655923484   -6.29265044216266    5.39129715348942
C         4.94226250758462   -5.52840322336442    7.33836175618822
H         5.43259802667645   -6.43228098618305    7.66611447816824
C         4.82447087917930   -4.44884080980298    8.19932754276004
H         5.21654326442379   -4.50944940373700    9.20361116783817
C         4.19819546139111   -3.29225825322273    7.77631508836220
H         4.10187083604784   -2.45340972544525    8.45261069504713
C         5.00034837296689   -1.46532961704780    2.66522934146009
C         4.55164582404747   -1.03821423552042    1.41848224658713
H         4.53193889033430    0.01384357835254    1.17891959278028
C         4.15297198083467   -1.95903106394256    0.46526599226273
H         3.81227525888007   -1.61588924428380   -0.50023091490095
C         4.19772340311064   -3.31549549888923    0.74178091640155
H         3.88865498502758   -4.03058313013642   -0.00473055311727
C         4.65361569538715   -3.74922065586839    1.97596353776552
H         4.70721947292510   -4.80574335155994    2.19263493359525
C         5.05086613975622   -2.83163993752614    2.93163773363108
H         5.41711083419132   -3.17380731641943    3.88922464549685
C         6.97643944563300   -1.21748606597717    4.58596996791628
C         6.79573909690363   -2.01078266210662    5.71653946221714
H         5.83345406005124   -2.00449038975683    6.21951275339899
C         7.82085437496520   -2.80226930743149    6.20019930784365
H         7.65730954228327   -3.41746204330463    7.07273932769208
C         9.04971690852289   -2.79665260941353    5.56201077890850
H         9.85767841894885   -3.40632168800344    5.93639799723341
C         9.23910487765907   -2.01014095562227    4.43713397323852
H        10.19560577483074   -2.00836612539829    3.93653296529173
C         8.20893292672643   -1.23121665428072    3.94022291085714
H         8.37526683165374   -0.64303013085064    3.05092352108225
C         6.25188580523520    1.04944743864149    2.96233844706771
H         6.82869629221149    0.58075490713031    2.15885476324996
H         5.42600026929243    1.60704860925579    2.50832700663022
C         7.12537097640105    2.01375530233309    3.76096116990913
H         7.81438319130349    1.45801879505460    4.40618419638198
H         7.72819867727057    2.59588729985603    3.05817833908444
C         6.29810899286972    2.97760615419201    4.60673497895960
H         5.45927291095524    3.36011035916460    4.01813062294582
H         6.92124833486055    3.81989914664274    4.92141763412796
C         7.20746918921587    1.91133795230474    7.03298169968374
C         7.64268821401636    0.64771414360227    7.40459291984748
H         7.02875911165321   -0.21567427208663    7.19459120935738
C         8.85250892764953    0.48626162478823    8.05716317367204
H         9.17962424974717   -0.50425345138340    8.33634960989308
C         9.63205596075134    1.58998619321792    8.35258925125985
H        10.57466364807845    1.46721178954744    8.86367392203408
C         9.19431415524310    2.85845744119986    8.00145323062540
H         9.79380750701053    3.72316241861678    8.24341478598507
C         7.99016893568231    3.02247947751471    7.34589537431333
H         7.64913709260300    4.01689443683048    7.09149771095034
C         5.01090126838693    3.58908614931384    7.08405376382980
C         4.85185203898869    3.41896955171302    8.45967208999314
H         5.11325719249166    2.47392904669509    8.91578220200218
C         4.36818474962485    4.45007265068931    9.24176634347084
H         4.25198402238815    4.30626760343711   10.30556696413226
C         4.04063164919296    5.66554602449432    8.66247430632599
H         3.66220562411710    6.47190008214274    9.27194594301252
C         4.21235489238426    5.84640737641581    7.30078659698764
H         3.97353701668186    6.79733953250505    6.84811522174368
C         4.69622978146515    4.81723322353340    6.51120387095956
H         4.83414799877289    4.98228157845293    5.45400319585393
P         2.60781015213505    1.25658516662200    4.46145648296802
P         2.87908511000748   -1.62584469851339    6.01534950673845
P         5.51825273762662   -0.30149209642992    3.97772804085531
P         5.64259438479813    2.16789673423829    6.12705424465245
Cl        4.42528406519394    0.10262769285369    8.02712124913018
Ru        4.22931999740313    0.30394145786060    5.78779308582755

