35
CSD_code = JOKGEV | q = 0 | S = 0 | Stoichiometry = C13H13CrNO7 | MND = 6
Cr        3.07923851700987    4.01474686287674    5.21693041158503
C         2.34989097607528    3.03859849441098    3.82214322532174
O         1.90885335481739    2.43035568900504    2.94886027901431
C         2.17846823347748    2.86575410222113    6.38415093425289
O         1.53036379185006    2.12482166434747    6.97577777101145
C         4.52328035168152    2.83692034274834    5.10755870577437
O         5.31811008151352    2.02662248089121    4.91150899157510
C         1.49091316482652    5.00559994167319    5.14890124265724
O         0.45880625067557    5.46545650094475    4.95394129088323
C         3.82035461706496    5.11105998703982    3.90112877978108
O         4.18884657845768    5.70843306658318    2.98750775639246
O         1.78427670810444    6.12259952408952    7.57882253045879
O         3.05020783031040    7.74435194456057    8.53948769235547
N         5.02277555658090    5.68746412438103    6.99228683658989
C         3.86565502915302    5.11102308445936    6.77943851105118
C         2.97687318634395    5.48298116544305    7.95864446022244
H         2.70565892936690    4.58860270614223    8.52996685770673
C         3.74345832757765    6.54760952783199    8.77887645545589
H         3.74986237977006    6.36263178098729    9.85721564892456
C         5.15311599397746    6.52025237260535    8.18205336707137
H         5.48130891947072    7.52696075916497    7.90850928931377
H         5.87932840304063    6.08441380983091    8.87401416064202
C         2.01724232340644    7.51898625617784    7.57835518608519
C         0.74343279010305    8.22215383869164    8.03824881538358
H        -0.06409700543286    7.97306649568716    7.35753244190102
H         0.90278871895861    9.29534644250543    8.05092732528797
H         0.48516775682913    7.88455761557530    9.03788603506351
C         2.46022598379421    8.02915021642790    6.20177289781921
H         1.63212609606896    7.95666424900982    5.50381996144350
H         3.28865296934149    7.43574408503704    5.81894038833988
H         2.76903414164315    9.06707024470296    6.29168117574661
C         6.18010575141550    5.60912257261337    6.14183840132597
H         6.02574188941826    4.85112219795259    5.37591745928049
H         7.05639642704610    5.34938088183277    6.73876241953395
H         6.36183497623333    6.57337497158621    5.66039229469483

