52
CSD_code = JOKHAT | q = 0 | S = 0 | Stoichiometry = C21H26Cl2N2Ru | MND = 9
Ru        4.96433899398682    2.51181109836445   24.21700883966943
Cl        6.63541064264001    0.86919881160234   23.84122242170243
N         3.80696316503000    1.95168589087133   20.19532517188857
Cl        3.41175828703827    0.74386616593268   24.35534128031331
N         5.58488890562278    2.65706179093016   21.21640060392208
C         4.67238639365481    2.37887380296983   22.21185793634641
C         6.94464400872508    3.07089733084492   21.44866366442808
H         7.55880777505881    2.82233874143275   20.58542519961917
H         7.31405829159727    2.53081183761241   22.32618412340234
H         6.99430649750242    4.14550881258226   21.63286046810482
C         5.06008181399273    2.38982096758783   20.00627116998710
C         2.85848590457183    1.55691156035259   19.19065774373952
H         3.12501393241762    1.99377907722576   18.22904541174091
H         1.86635312002918    1.89868902126910   19.48346519731887
H         2.83349366700836    0.46931699979091   19.09737208956882
C         3.55388782175816    1.95177156086376   21.53599104471063
H         2.61535591214790    1.62239837515840   21.93403988915275
C         5.72239574526165    2.55406581234946   18.71741322303270
C         5.72929530300328    1.51346968764524   17.78802255363971
H         5.26739324293341    0.57063590162700   18.03734947092141
C         6.35883949245481    1.67390168639964   16.56788341615465
H         6.36374807781735    0.86048254181111   15.85824040554595
C         6.98776663117199    2.86844375433481   16.25767475446733
H         7.47945069661664    2.98955860811776   15.30456667941708
C         6.98693949005624    3.90605202237203   17.17556331748915
H         7.47525965056994    4.83903060516018   16.93763488313701
C         6.35996203862194    3.75354119746932   18.39755821224363
H         6.34511345208527    4.57083825915176   19.10251459251309
C         5.37908396923394    4.71016052942580   24.25956877439955
H         5.64565325079665    5.42422218326392   23.48583803112298
C         4.00322567653061    4.52680605136845   24.58860300151088
C         2.92928429951693    5.30307030316843   23.88207471831900
H         2.74397634601057    6.24172810344464   24.40897245725381
H         2.00121400899853    4.73617647005761   23.85772816641279
H         3.22253747617152    5.53751346998614   22.86048952350712
C         3.69464699447640    3.66762381409032   25.65715985627541
H         2.65814795869584    3.52920031829788   25.94696001806174
C         4.71460052597486    3.05629438263491   26.43390160946758
H         4.42961634839477    2.46415909255982   27.29386459516524
C         6.06172503340915    3.23385456616963   26.10910642153664
C         6.38697235851097    4.06871389827905   24.99833279325630
H         7.43027391455034    4.26587075750243   24.77439924889020
C         7.17662855936894    2.64901639789483   26.94328420418803
H         8.06984094918531    2.58655091264832   26.31067644445576
C         6.86420018506178    1.24057167598060   27.44658391257620
H         6.54347896877473    0.61187170144334   26.61811748749979
H         6.08461359844713    1.24993738586832   28.20527043714489
H         7.75696393791082    0.79954569114264   27.88354966232644
C         7.46702051394742    3.59994200137893   28.11037652643104
H         8.29608852222549    3.22008744949723   28.70247087030293
H         6.59381836123884    3.68734526678477   28.75482802195150
H         7.72728928918810    4.59287565528733   27.74658945377591

