21
CSD_code = JOKHOI | q = 0 | S = 0 | Stoichiometry = C4H12Cl2N2Pt | MND = 4
Pt       -0.43832290250443    1.93935906392952    3.55560010315506
Cl       -0.73189608348479    1.39781971540085    5.70330163716206
Cl       -0.22808173067558   -0.20764043284750    2.97312661460444
N        -0.20785920437300    2.61890302965004    1.52642605656192
N        -0.58231106065521    4.04820710473109    3.96168673918600
C        -0.85561106417270    1.83571364463272    0.47628678561368
C        -0.61245933909586    4.02666696812679    1.50869377602707
C        -0.09953037886920    4.73580378045286    2.76168331544003
C         0.04753531683296    4.54423625265120    5.18355812722706
H         0.80243373791572    2.55432533620363    1.38788725963657
H        -1.59075185882375    4.18749064469683    4.04974869005294
H        -0.61976500913534    2.22570367068205   -0.51959033504683
H        -1.93503590820712    1.85916195287399    0.62123836942876
H        -0.52453139790508    0.80171956029885    0.55722211644926
H        -1.70713480472150    4.05911080954100    1.49332078391920
H        -0.24468087978111    4.54101608996331    0.60953404096706
H         0.99515857936314    4.70443757987247    2.77682567714496
H        -0.40909294915481    5.79048091744116    2.74892078571358
H        -0.13917345084938    5.61395556634568    5.32629671071992
H         1.12225519603130    4.37431054547459    5.13112962732402
H        -0.34364480773426    3.98351819987891    6.03080311871323

