25
CSD_code = JOKMUR | q = 0 | S = 0 | Stoichiometry = C11H10CrO3 | MND = 9
Cr        1.20300127897310    0.44132723529041    5.33926856825615
O         2.19327404047628   -1.86161027255090    3.73965441681109
O         3.07717451472118    1.81564733114104    3.48052875148792
O         3.79435825271051   -0.12371406951785    6.68816421860850
C        -0.69930052138086   -0.55326629790401    6.10024769683769
C        -0.99849228471874    0.09818532808918    4.87194395691156
C        -0.72793378528578    1.46339856464470    4.73869520851423
C        -0.16212624052490    2.19997854890255    5.79948197580070
C         0.12929108393374    1.56461050544593    7.00249959958288
C        -0.13482765625388    0.18664007343478    7.14340453505888
C        -1.05771808501547   -1.99606306863030    6.30121569296435
C        -1.67825475668059   -0.65085554582616    3.76421788401852
C         1.78064195403809   -0.97584513852524    4.36032766417399
C         2.31975618970459    1.32208920784812    4.20064713084842
C         2.77014346318800    0.11249342471488    6.20730326276781
H        -1.02387065247878    1.98054372673972    3.83297686928325
H        -0.02781040051770    3.27022060901758    5.69727110228489
H         0.49551298244129    2.13151099686707    7.84976488570929
H         0.02779609106374   -0.28691175973371    8.10524198677899
H        -2.13956492687496   -2.13312609931745    6.25476425857977
H        -0.60894193753115   -2.61892394322798    5.52870277892654
H        -0.70775649150824   -2.34855887945003    7.26888236444632
H        -1.10362549146644   -1.53215308017347    3.48249176818273
H        -2.66908300848960   -0.98399983849121    4.07783651194516
H        -1.78934361252339   -0.02111755878755    2.88436691122028

