58
CSD_code = JOKNUV | q = 1 | S = 0 | Stoichiometry = C23H29IN4Rh(1+) | MND = 8
Rh        2.64121940479720    4.98487280575855   15.15901357315917
I         3.82203617494165    2.63052156020023   15.57006505433181
N         5.05396967944565    6.33184211492804   15.99494424942921
N         4.00610733088934    5.84563678042645   17.81692668305482
N         6.00341115030294    5.22196225448121   10.74260502454406
N         7.59624105368741    6.33245306053352   11.76455862976061
C         3.90862329569456    5.78022678598949   16.48184566248809
C         5.18535009895207    6.45484198388177   18.16761304721728
H         5.45822824375277    6.61524456312035   19.19031331470629
C         5.84793183410246    6.75958128408997   17.02871712402251
H         6.79769589106896    7.23078434151690   16.88945466788583
C         3.08872673909177    5.25778838296939   18.75454619582733
H         2.54338862031329    6.02684499739023   19.30380733175027
H         3.63720085671748    4.63691084990124   19.46327517594527
H         2.38744609018203    4.62773786828607   18.20611791314549
C         5.28378229410989    6.17159223694351   14.63520437661372
C         4.20727705349080    5.49122138273601   13.99106205165840
C         4.36572573574578    5.12532042809959   12.66276635254119
H         3.61456931324631    4.54736796594837   12.14625276576260
C         5.54870624102254    5.47184193339880   12.02234440802090
C         6.57381792944313    6.18104695806474   12.67676052103772
C         6.46062070493174    6.54093469717322   14.01323842494012
H         7.25534022665460    7.04441640079450   14.53791432611863
C         7.22026075966945    5.74648910631380   10.63040883866535
H         7.82249404441261    5.70166398336721    9.74293402156554
C         5.28204124869878    4.49095047528798    9.73811128364074
H         5.87615548860527    4.42524989160220    8.82964541884919
H         4.33953163392382    4.99326407328551    9.51534054078813
H         5.06534380644751    3.48419086393402   10.09892769804448
C         8.84887166778658    6.98860143033259   12.01969256569699
H         9.46146185309993    6.97657428797826   11.12123169329176
H         9.38137238771433    6.47536892398795   12.82197677334747
H         8.67417114747461    8.02253415300694   12.32052812616176
C         0.79139850580073    4.12499497373458   14.25260104196572
C         0.52759700121598    4.30716943801249   15.67705459120388
C         0.61816237632345    5.67865453979482   15.96505739064031
C         1.02637276317296    6.35966204146217   14.75073207278851
C         1.00831734984338    5.39486570018714   13.67788207327405
C         0.54581892437461    2.83905381071402   13.52888194268967
H        -0.52892923699416    2.70593945147776   13.39245209361600
H         0.92046538664755    1.98890485566213   14.09462241373188
H         1.01830586471614    2.83231583211175   12.54912516668593
C         0.01321931537514    3.21816726704992   16.56394194445754
H        -0.99321036108615    2.94289183673813   16.24496819273528
H        -0.03304603976474    3.53489134099204   17.60335372967690
H         0.63536110023519    2.32664034019449   16.50269221392819
C         0.18564085704193    6.38520639736569   17.21166484228456
H        -0.78511481588390    6.84896106011842   17.02749128489552
H         0.88064867308268    7.17494386555255   17.49165334100877
H         0.07594319038139    5.69879605609519   18.04710114429736
C         1.00773400986671    7.84492023421825   14.56646632556086
H        -0.01616523436593    8.16908422492552   14.37025612985080
H         1.62586976282118    8.14783743673393   13.72384960168224
H         1.35876718906877    8.36080253914811   15.45771882992851
C         1.02815157704357    5.73908394723253   12.22098744266726
H         1.20983020876265    4.85999483810043   11.60698100273967
H         1.77896025445180    6.49433811172119   11.99312138430125
H         0.05218137752641    6.14290103499494   11.94599996929554

