47
CSD_code = JOKVOX | q = 0 | S = 0 | Stoichiometry = C17H24Cl2N3Rh | MND = 8
Rh        5.13895875411876    7.86980256616669    4.61399568675356
Cl        4.50144054957695    5.93704811451563    5.69435542997972
Cl        6.85837661297562    6.70066272720686    3.60274336531804
C         3.36522560595084    7.16954405611212    1.90597869955163
H         4.23814572953367    6.81906919996110    1.35982985418878
H         2.86150596218339    6.30869567912442    2.33942966196367
H         2.68642463398571    7.65667568386685    1.20196219712787
N         6.43406944547401    8.20376759044425    6.18777442041901
C         4.77376863080254    9.95166787235663    3.99733211598660
C         4.79501890746131    9.14455401337907    2.83220718269449
C         5.59541091667632   11.17862488715895    4.24323754793601
H         6.55914268829060   11.11190508970678    3.74375262691244
H         5.06783368366191   12.05425728362262    3.85963292227586
H         5.77122911337790   11.32917808764116    5.30683693852243
C         3.77084682101302    8.13750058016649    2.97436848920504
C         3.68514177020392    9.49702047869778    4.83899241334779
C         3.02770608094768    8.42986195062259    4.16719098954522
C         5.66306130076753    9.30385325928919    1.62726533527137
H         6.26833588292995   10.20386049628957    1.69656398305820
H         6.32769529760204    8.44546558868340    1.52162656923140
H         5.04064995165606    9.36450504826608    0.73447903792435
C         1.77318390019771    7.74118159341471    4.59610246975550
H         2.00439504271999    6.79684759507085    5.09147131702745
H         1.21177607163334    8.36454777120327    5.28746151545122
H         1.15351870287441    7.52703475099677    3.72735331517658
C         3.19515205895137   10.18651760478944    6.07444433489010
H         2.70744676375634    9.48058803251636    6.74296718341311
H         4.01406081160434   10.66054194271302    6.61189545977368
H         2.47409967709775   10.96076134187157    5.80334954573555
C         6.07046461109636    8.00039330589084    7.45437682095814
H         5.05944399449327    7.64969733685439    7.61717110326591
C         7.67932471235840    8.63056337820498    5.95248000640588
H         7.95206520433760    8.77507423758991    4.91478039657404
C         6.92719674993248    8.18888870749289    8.51942617048978
H         6.55985997342228    8.00814133558868    9.51632893535153
C         8.59376481540503    8.84661968588646    6.95769964628143
H         9.59087538813771    9.18263624990469    6.72824720816916
C         8.23830806280292    8.61503104922694    8.29164955308271
C         9.20200229180144    8.81916682870523    9.36775453093411
N        10.25255064540660    9.48081654074828    9.04918286700495
N        11.19175572413931    9.84134290242340    9.91612499296972
H        11.27480872509606    9.38280723320367   10.81914795862612
H        12.05326487437620   10.11650779715583    9.47134435995533
C         8.90205503526058    8.25686638839143   10.73305091462416
H         8.30355498515039    8.95809236833865   11.31399011474978
H         8.35970445014130    7.31934525553772   10.64608421476674
H         9.82157838852413    8.06236851302966   11.28425959747318

