123
CSD_code = JOKWUB | q = 1 | S = 0 | Stoichiometry = C60H56ClNOP3Ru(1+) | MND = 6
Ru        1.18911329322514   -2.25946165476280   13.95484668686849
P         1.19074221367413   -0.02728663854264   13.41329379588537
P         1.62739150289539   -4.38000719871266   14.70546731257242
P        -0.82796275752953   -2.17010104659586   15.10302075868806
Cl        0.15637038710647   -2.88394715925670   11.91981819260003
N         2.07211967289955   -1.63923973711283   15.90449736238718
C         2.98872767895376   -2.30416248581874   13.21915667064084
C         4.16223276051719   -2.19531848208767   12.85458216668674
C         5.43066803380108   -1.96542309238809   12.37283314705543
C         5.77622006318640   -0.62848830375169   12.02365652624015
C         6.84163058163075   -0.22651505692038   11.27351654142013
O         6.35707328155510   -2.91641514815882   12.26173224910088
C         5.99386085297351   -4.23676813339095   12.59304337320524
C         7.70043861913562   -1.17068771922917   10.55069890818701
C         9.08580900705788   -1.10292114574786   10.68178859900869
C         9.89591675066839   -1.98375053249169    9.98962783400163
C         9.33567395771626   -2.92442597557497    9.14141756037806
C         7.95932349602532   -2.98220649282835    8.98732114758788
C         7.14475190060669   -2.11501149763673    9.68852492904882
C         7.12417887365935    1.19334328623270   11.09667196176593
C         7.68732396651648    1.65105387024676    9.90159477290197
C         7.94427784456620    2.99485496681134    9.71438578753494
C         7.66036215048449    3.90579188406292   10.71961420615967
C         7.11545752256734    3.46318749344462   11.91508654583040
C         6.84347663554776    2.12251343460208   12.10216758519138
C         1.77182320676933    0.68910316934205   15.01981842719135
C         2.70378789061460   -0.31933800489976   15.69050088154173
C        -0.22299439761887    1.00370300784782   12.92454008683226
C        -0.92039072983243    0.55648645390099   11.80370489715360
C        -1.94519032969452    1.31752172198064   11.27652318719726
C        -2.28005030364511    2.52672427868690   11.86507124920959
C        -1.59115887414783    2.96956327262558   12.98144310513860
C        -0.55860988994540    2.21668319591846   13.51221049786139
C         2.33043757219408    0.57476288287173   12.12472133896691
C         2.49445382563599   -0.23228504012558   11.00191240238892
C         3.27003715247748    0.20203025680968    9.94260207153432
C         3.87599072221918    1.44672813710263    9.99011944563534
C         3.69209988328661    2.26411619751546   11.09349789710757
C         2.91659698625251    1.83596655411849   12.15634049773344
C         2.62486491214860   -4.06139131047879   16.24571128770069
C         3.12874250588415   -2.62003462208866   16.22527538541202
C         2.64495221696245   -5.50305896675608   13.69936535203363
C         2.64507794714534   -5.34480601427973   12.31793588746297
C         3.30090673636618   -6.26500814313247   11.51758054976198
C         3.96005907476886   -7.33966023329696   12.09122078425721
C         3.95236401322825   -7.50422035536700   13.46791654266255
C         3.28599929783823   -6.59871937604971   14.27157692905540
C         0.36684900521765   -5.60888462537462   15.17278512464843
C         0.14464437718928   -6.15013711983890   16.43216145886538
C        -0.84762065665764   -7.10040675288972   16.60583307726775
C        -1.61106072722068   -7.52160776180845   15.53154769573490
C        -1.38664886212215   -6.99062929769887   14.27102718741220
C        -0.40760630326058   -6.03486256395525   14.09358308731243
C        -0.17922193263197   -2.35846985885831   16.82462290402443
C         1.10225467632937   -1.54767447092809   17.02020930716843
C        -2.13543666570490   -3.43372998855732   15.02060452189154
C        -2.76846675725480   -3.93664220870724   16.15294251147916
C        -3.81418819135982   -4.83092524386434   16.01766420969659
C        -4.24957189449067   -5.21592714001121   14.76064263565525
C        -3.62419705807641   -4.71618328449319   13.63152793163714
C        -2.56732964891147   -3.83396087021083   13.75853879414737
C        -1.90391844602040   -0.69631368694123   15.17619784325669
C        -2.77982264743476   -0.52165107434382   14.10592548190577
C        -3.65627972447658    0.54448770626661   14.08420293791937
C        -3.65599151735060    1.46345328251036   15.12107047139603
C        -2.77621335909343    1.30824330159066   16.17720197943681
C        -1.90471169907613    0.23315755777620   16.20979151684931
H         5.08280003173263    0.11808753400423   12.38383504482235
H         6.90871802961264   -4.82331298129972   12.54834707245254
H         5.26324923417057   -4.63053909967089   11.88191913423962
H         5.56012372224331   -4.29096109888030   13.59646148190310
H         9.52031622932178   -0.36862783110371   11.34460068923405
H        10.96768445876203   -1.93153908657678   10.10753977393300
H         9.96957061586870   -3.60647060145520    8.59559489386949
H         7.52113516043645   -3.70374995850048    8.31389238021522
H         6.07214882503961   -2.14535645121150    9.55720647493161
H         7.90190431776816    0.94567467219196    9.11246548407646
H         8.37067766118932    3.33464337921900    8.78278847430249
H         7.86792816401378    4.95496861110332   10.57496860997997
H         6.90645083612252    4.16883180785168   12.70558779030329
H         6.44142663390321    1.78357773247315   13.04547617813510
H         0.87957723081338    0.88086384123595   15.62409619493132
H         2.30307321830254    1.63282088052962   14.88282006227702
H         3.06681032500168    0.07545108073034   16.65104526255150
H         3.56663678524192   -0.46506484360132   15.03171043837401
H        -0.65209756287136   -0.39419337300551   11.35935465326202
H        -2.48155246747328    0.97032501867970   10.40633702611763
H        -3.07753886822995    3.12645822490025   11.45320276005172
H        -1.85287730075968    3.91192189322139   13.43931908872058
H        -0.02521507095363    2.58282331548232   14.37706668808669
H         2.01185107798841   -1.20128534951462   10.97006938130821
H         3.39470224524805   -0.42733460705058    9.07437633988316
H         4.48420776038296    1.78810472371646    9.16633505596271
H         4.14959028549019    3.24161322091610   11.12235109326460
H         2.76407793685030    2.49467425632133   12.99975052932134
H         3.48118704515396   -4.73826932992825   16.28842745440300
H         2.01123864705870   -4.23754330912436   17.13063179833345
H         3.90090441718089   -2.53739854322546   15.45468774136405
H         3.58468421886514   -2.36880017414052   17.19509259387712
H         2.12462629744335   -4.50432628789898   11.87648082423384
H         3.28833805499937   -6.14757788394293   10.44408789218078
H         4.46893042645493   -8.05864870864476   11.46741066295369
H         4.45123235139908   -8.35174886733109   13.91335050566766
H         3.24841393357674   -6.75544978997698   15.34127314276649
H         0.74041196575595   -5.85793437003046   17.28583159929605
H        -1.01763242827406   -7.51813089953280   17.58713394309224
H        -2.37803236743881   -8.26681350895160   15.67613803193544
H        -1.97592263058798   -7.32215416615173   13.43004786543963
H        -0.22773977415384   -5.60042320778701   13.11696467168350
H         0.00010920988165   -3.43112077414726   16.95061331344838
H        -0.91890741408092   -2.04636954612856   17.56668762945452
H         1.59311297234793   -1.85678715527771   17.95319143635907
H         0.82316042668565   -0.49899242816029   17.14050726370588
H        -2.45848400497360   -3.63713152585546   17.14280554930960
H        -4.29802916535750   -5.22123072963152   16.90066307406147
H        -5.07436744418556   -5.90554087561379   14.66441974789464
H        -3.95591917115317   -5.01522342588640   12.64865022961703
H        -2.05680900156822   -3.47073173365998   12.87662784365379
H        -2.77351018813250   -1.23557152724844   13.29394602262301
H        -4.34187770899870    0.65915859190983   13.25878437311312
H        -4.34146526850852    2.29669399120000   15.10722482026264
H        -2.77245392599055    2.02183650705829   16.98816017528051
H        -1.24521866455333    0.12641437113929   17.05940773501451

