72
CSD_code = JOKWUC | q = 0 | S = 0 | Stoichiometry = C22H44BIrO2P2 | MND = 7
C        -1.58948606365673    2.43840166709584    1.95955302488292
C        -1.39793102068982    3.67028708326471    1.33859273697591
C        -2.16719718737754    4.07990951994438    0.26131618611861
H        -1.99416247741300    5.04779794937508   -0.18284219594772
C        -3.14044476400608    3.22743250279697   -0.23349709085606
H        -3.74545929971882    3.53551650056878   -1.07170634929417
C        -3.33290722230127    1.97735247215701    0.33033972480764
H        -4.07289063682601    1.29672814177285   -0.06083917499732
C        -2.54702962379095    1.59344320090869    1.40565822401022
C         2.04222358864636    4.60056965428901    2.89364679435278
C        -0.63284239665683    5.38532562001833    4.33099679756315
C        -0.97794341103350   -1.65658629324971    2.57177160885335
C        -3.18906621257636   -0.45809860737318    4.43430021457214
C         2.17429225874815    5.86264546919011    2.04494675358941
H         1.95242918435732    6.76236809062010    2.60866389554504
H         1.51259163085039    5.81393843826816    1.18448045706321
H         3.19856333765064    5.94306937185021    1.68241669840503
C         2.61366913332871    3.42460755548920    2.09808973853609
H         3.64025631756114    3.63437901055481    1.80042418496667
H         2.02345965410615    3.24965148041881    1.19976072108196
H         2.60682486497638    2.51723667663096    2.69878902045147
C         2.80573221608217    4.72795839043959    4.20816792668287
H         3.87837369213134    4.68949724741863    4.02151938194261
H         2.54549315219671    3.90931986550174    4.87783797484763
H         2.58928087404913    5.67138076083688    4.70396835573612
C        -0.46713417064827    6.80263146488653    3.78787607740612
H        -1.22604259654873    7.44927341341645    4.22819372373675
H        -0.58976091599472    6.82273873253858    2.70735856774658
H         0.50483206467233    7.21381416112931    4.04694000870001
C        -2.11361039413058    4.99968901375550    4.24794988515187
H        -2.26892443634255    3.97244580246584    4.57439140893387
H        -2.49294853661940    5.09865320342370    3.23187138473244
H        -2.70485682921857    5.64855567853903    4.89400951628878
C        -0.18741226512555    5.32067748569254    5.78710512154940
H         0.82580443278160    5.69079911237490    5.91532996628642
H        -0.22863134195826    4.30207437388801    6.16161359487710
H        -0.84780247552668    5.93621212988230    6.39844538694358
C        -1.92508313794540   -2.84061190496505    2.40774984821398
H        -1.40452452727227   -3.64289285066348    1.88459509172125
H        -2.79172058806238   -2.55893982937650    1.81507648542595
H        -2.25057618727390   -3.23266404939773    3.36739767614433
C        -0.40037217377642   -1.31235125113269    1.19819877898513
H         0.22942073910525   -0.42655948196192    1.25433395861918
H        -1.19704049760257   -1.12243958630306    0.48234305402359
H         0.20275831268760   -2.14128494686796    0.83133931557741
C         0.15902016654056   -2.00383575742339    3.52931022055122
H         0.70697430701696   -2.87145980796656    3.16436030713313
H        -0.21520917753512   -2.22927529255419    4.52487391970610
H         0.84848699779129   -1.16533744899713    3.60826289167819
C        -4.35443772977196   -1.20962695258997    3.78837966407836
H        -4.15242546800003   -2.26978210598121    3.68537075385186
H        -4.58863869571671   -0.79731569166198    2.81014249168947
H        -5.23752720138309   -1.10330343073333    4.41829722583506
C        -3.70106787496273    0.91857707041722    4.86920484970443
H        -2.93682722999607    1.45549095541626    5.42503216532463
H        -4.57058008088508    0.81131054434853    5.51708708995869
H        -3.99491735892625    1.51394524860733    4.00365857185291
C        -2.66305852677211   -1.21093481500160    5.65024423987570
H        -1.80176993568035   -0.69762501799363    6.07266993202413
H        -2.37292366052007   -2.22795299356902    5.39580551669137
H        -3.43775030202837   -1.26480112333332    6.41500456684706
Ir       -0.40088182346961    1.83963186253933    3.48888015165042
O        -0.39597598478808    4.49873625617597    1.81166642265570
O        -2.71402982975364    0.33205627423088    1.94536523273728
P         0.25774688463829    4.09259817122760    3.24949967958609
P        -1.77873601394207   -0.06731604154426    3.22009622929530
B         0.10263097600439    1.60346897641229    5.79199244302303
H         0.74447964114017    1.26319863003252    4.71209449164476
H         0.76612704149207    2.36990393214790    6.41195744460773
H        -0.17211118479085    0.63115749602654    6.41736075797248
H         0.46356683381692    1.42072250644248    2.31159614004827
H        -0.94866883336065    2.16431611522280    5.34511213902328

