61
CSD_code = JOKXEN | q = 0 | S = 0 | Stoichiometry = C24H27CoO7SSi | MND = 8
C         3.95654327876480   10.34735296999099    6.43031264527640
C         2.76096452776082    9.86144857670336    6.72785212106786
C         2.72384000020625    8.54937220792046    7.47028154512788
H         1.71796709850940    8.19408858586424    7.67794688492032
C         3.51039615397506    7.46532288497276    6.69142709723723
H         2.90416427479179    7.17953366053672    5.82695368244935
C         4.93523944349814    7.81917301027509    6.30919971452392
H         5.09656573063447    7.93045748130791    5.23492834087222
C         6.93540500957863   10.88878361250829    8.12604726325803
H         6.76695531671767   11.50676757745161    8.99346343690896
C         7.51226752203746    9.58702987969006    8.13528671918777
H         7.84048511199377    9.05000628102923    9.00977349075009
C         7.67487306650330    9.17784751154754    6.81027246257208
H         8.14729351107565    8.26814565963658    6.48003135877602
C         7.16803455492311   10.20703516361709    5.96178071040635
H         7.29301234183942   10.23807705104510    4.89125319486372
C         6.77404806654561   11.29286441292331    6.78882605701062
H         6.46067012406091   12.27002297269568    6.46643921740754
C         5.01021524999724   11.47199724388768    3.99557179261906
C         5.94730278299817   12.39829022346138    3.58291407436493
H         6.04153815063176   13.32612049073976    4.12513786824468
C         6.74034754696311   12.11318108526947    2.48241846598260
H         7.47896691990275   12.82689163591596    2.15041880671822
C         6.58259243460449   10.91170774114115    1.81012804516814
H         7.20447516395907   10.68885511445520    0.95606748141629
C         5.62412625915038    9.99706289011238    2.22139628182615
H         5.49831729547416    9.06841132862832    1.68572231474577
C         4.82790199362750   10.28128148033242    3.31772831359927
H         4.05952782883877    9.60267366484499    3.65406601421726
C         1.15543817823736   12.61519193503850    7.03848236050980
H         0.72438360272557   13.25142339529076    6.27327358111128
H         2.17965669342060   12.94514147517392    7.17469212343017
H         0.61070578671680   12.78283674480607    7.96375300279029
C         0.22883481397288   10.27925357666545    4.85967705443689
H        -0.82213653487138   10.54703799828807    4.90332208442398
H         0.28403987258093    9.20529022320587    4.70209066387777
H         0.67059623139074   10.77423969813704    4.00441071381364
C        -0.02587982125817    9.98754797015022    7.83730190297733
H        -0.93139920342627   10.57526003488415    7.94507489747983
H         0.44713394328827    9.94501240386926    8.81327459600278
H        -0.34006280482419    8.98260425266126    7.57670311559127
C         3.46003725790139    8.78814022905846    8.74959956070447
C         3.44714366948055    8.79144120363296   11.09653265663345
H         3.78765723411234    9.83163845290466   11.13836375159571
H         4.32301984507852    8.13588462799635   11.13992106900771
C         2.46338864337345    8.47484887123759   12.20540140691091
H         1.60182570252183    9.13340955056149   12.14237375769715
H         2.94405033606893    8.60782507817103   13.16996727341094
H         2.12342112086341    7.44736466212157   12.11384788903308
C         3.67306167710818    6.27481599430572    7.63341523698598
C         5.73961011570185    6.69143656722021    6.81071851263078
O         4.36801327569254   12.99077530741101    6.06872709494160
O         2.59340850382431   11.87204629567713    4.78800304301490
O         4.62772998009347    9.18127737182711    8.75657131054551
O         2.77895645564878    8.57812440826000    9.84212066221617
O         2.81652294761401    5.74333886762718    8.27430366167902
O         4.96377825358818    5.91226680499984    7.68300314362824
O         6.85634888519042    6.34390027308263    6.55819172485439
Si        1.08873986732245   10.79056868363822    6.48765881234977
S         3.91449400149872   11.80525011510779    5.38250318525417
Co        5.59514470979619    9.57920452849208    7.13407474894772

