32
CSD_code = JOLBOD | q = 0 | S = 0 | Stoichiometry = C13H12N2O4Pd | MND = 4
C         1.32304776880609    5.01810392334874    3.86423430580281
C         0.18964878224314    5.62593515630479    4.43299413611828
H        -0.13108487683960    6.57841470493144    4.04139444335258
C        -0.47291973913882    4.99883316923487    5.46016518819945
H        -1.34542438493638    5.45442860365019    5.90606949820942
C        -0.02704582237085    3.74778864845145    5.95189581865588
C        -0.59538991706411    2.98937263270254    6.98786864379748
H        -1.47116003625700    3.35486516704339    7.50077713269602
C        -0.02440970178984    1.78370038231075    7.33672572167936
H        -0.47302699197504    1.21124713732244    8.13646750191041
C         1.10699067176402    1.25533540820042    6.71256671694170
H         1.50906693864505    0.30579047020050    7.02844801337707
C         1.72319120538215    1.95346269192202    5.67553440765978
C         1.12039430961085    3.20500807263698    5.32460039931004
C         2.20226108021574    5.53512157385297    2.72150620299647
C         5.45370327541197    2.72546195305852    1.79026667559649
H         5.12491196619991    3.71357773668603    1.43739399451813
C         7.02907378714386    0.92323556235283    1.51125222163913
H         6.43396300141529    0.52084907147183    2.32860322096815
H         8.06816836261792    1.01911359367237    1.82949262662613
H         6.98071744868405    0.24646886531605    0.65693840646423
C         7.15502638065513    2.90909554510899    0.07196728064426
H         7.11138807268343    2.30958787159906   -0.83980213382162
H         8.20388224005307    3.08249451195271    0.32188127106681
H         6.67153799921506    3.86595378192313   -0.11029952348380
N         1.73805078067015    3.85172149108218    4.32372490826281
N         6.49700418746014    2.21819692891281    1.15046524225079
O         2.78116985247057    1.56524083458376    5.01411925884826
O         3.17630536120405    4.73840973651354    2.42189183703170
O         1.97424293799522    6.59348105246061    2.17559857329464
O         4.88375090042938    2.13651705487326    2.71989639519039
Pd        3.22676415939542    3.01858666631928    3.59066161419654

