77
CSD_code = JOLFOH | q = 0 | S = 0 | Stoichiometry = C32H42N2Ni | MND = 7
C         8.95354107064252   15.96300293980551    3.17891774331150
C         8.86677798204280   13.90978251183537    2.27647558968120
H         8.61368387453000   13.16918697322464    1.54605603739713
C         9.51079476025764   13.80710817032228    3.45899275364272
H         9.93143278275640   12.96008035974351    3.96057699808116
C        10.52841083780978   18.78482251312725    3.19680902142689
H        11.42693686286617   18.54242719898203    2.64576382488495
C         9.49739829698142   19.60466821431848    2.75568442400175
H         9.41203744025188   20.08124034254404    1.79181996185060
C         8.59641752606180   19.77183890619570    3.85064787662551
H         7.77328453599448   20.47268261859811    3.86667308636394
C         9.18953749619056   19.19073580433951    5.01332435073321
H         8.83563207994588   19.30518418605821    6.02548498779751
C        10.33791789855793   18.53033364060381    4.60271036924817
H        11.06926643024126   18.06667950058545    5.24918160408837
C        10.21002244054517   15.32901912895644    5.23749421440055
C         9.45594162780836   15.63084120303242    6.37907180573271
C        10.13724323991771   15.79905396780760    7.57629331724996
H         9.59212128136690   16.02416859429042    8.47780269313174
C        11.51401182668351   15.68382773381570    7.63805724445511
H        12.02247473596677   15.81809891977809    8.58157411384262
C        12.24078447655405   15.40933636681656    6.49775830441474
H        13.31590490091713   15.33688950099260    6.55632049302476
C        11.60330613918234   15.22826144034313    5.27646536304725
C         7.83332474223493   15.71766079598208    0.98151314751689
C         6.46045606085545   15.48406949914532    0.88942502714915
C         5.80439795574740   15.89658340950766   -0.26322383438555
H         4.74338621616707   15.72876968500734   -0.36311374238944
C         6.49316475392776   16.51891792655966   -1.28458642892173
H         5.96945194111572   16.82906114867039   -2.17687477762643
C         7.85076889853019   16.75359358928571   -1.16913266054425
H         8.36992289577634   17.24566238466459   -1.97541458670623
C         8.54592967948514   16.36439035036811   -0.03359090528617
C         7.95203235950645   15.76269460617759    6.29329798123194
H         7.72155740130453   16.34072041101819    5.37914574801373
C         7.33738617798574   16.52523921548051    7.46465792081024
H         7.84373025010659   17.47514681714298    7.61351897094339
H         7.38232904885840   15.94822235830969    8.38641934938649
H         6.29194272284965   16.73048027222605    7.24692784937203
C         7.30146948255271   14.37956305459845    6.18714567030729
H         6.22215040133164   14.48537647606483    6.11023206172445
H         7.52921922151460   13.78983379026714    7.07392423300837
H         7.65220780087330   13.83513159194769    5.31421793351074
C        12.42620389440476   14.95311203310073    4.03718471329600
H        11.76949513178949   14.92865918341132    3.16239046053981
C        13.45140414153070   16.06559780815184    3.80516138918677
H        12.95788604593087   17.03319756081896    3.76860615210771
H        13.96623019550639   15.90416538873843    2.86009960251280
H        14.19516946502820   16.09129156454701    4.59740437150952
C        13.12530444294658   13.59560911189373    4.14598092122448
H        13.68355783406349   13.38847752550044    3.23558681027543
H        12.40182043387495   12.79665499549761    4.29433568345320
H        13.81863242821035   13.58516200385454    4.98338142492617
C         5.69100776750705   14.80969740404074    2.00093722060080
H         6.36541073153273   14.62444818568560    2.84123618362187
C         4.57533297019323   15.72224083867438    2.51207381197943
H         4.07359299853920   15.25641704736459    3.35704209698370
H         3.83753652423574   15.91710288650662    1.73885392031151
H         4.99944883992945   16.66882951513296    2.83754219031103
C         5.12732128907487   13.46712178791600    1.52866091930671
H         4.61359663283816   12.96913444952014    2.34774399120004
H         5.92485909401198   12.81617567267156    1.17612296112123
H         4.41974174743664   13.60929938105475    0.71590193753262
C        10.03456786657165   16.59011350491479    0.10342561036232
H        10.24668335446333   16.75728682850286    1.16585159706133
C        10.79600668933866   15.34428104643929   -0.36140749013012
H        11.86809457852635   15.50016318722746   -0.25960411330831
H        10.57544564287253   15.13803673404590   -1.40710810751872
H        10.51875959246292   14.47124574841783    0.22563322064835
C        10.52627175919656   17.82093915241537   -0.65509907800751
H        11.54849064343490   18.04928004917300   -0.35959025007745
H         9.90185265841570   18.67981867310681   -0.42393083160764
H        10.51977093043094   17.65727214512287   -1.73035310110978
N         9.55390811721357   15.06730615852263    4.00125368857510
N         8.53574776672236   15.22933309541821    2.11987575620204
Ni        8.67316398802616   17.80221771401175    3.48436305369334
H         7.26707524893347   17.70242350006699    3.21819814768421

