89
CSD_code = JOLGEY | q = 1 | S = 0 | Stoichiometry = C36H49N2NiO(1+) | MND = 7
C         7.30527395930123    4.74666275717044    1.20358186969333
C         6.19626243018140    5.84843184102920   -0.39138520331571
H         5.40171972489985    6.04151297690871   -1.08094686597331
C         7.35500216394339    6.50740110739904   -0.16982560883541
H         7.75203752168141    7.39621307336372   -0.61382113096522
C         7.89031830246556    2.35167478252416    4.42288418966717
H         8.72610818834976    2.00560764456457    5.01228042268320
C         7.21659999709669    3.55535819686756    4.59617212667390
H         7.43531446213085    4.32036526587311    5.32090046994111
C         6.15864490163530    3.56557324300832    3.64110978796699
H         5.36802500251140    4.30010170249936    3.60020290783903
C         6.06019104555256    2.22853888739394    3.06203396543272
H         5.23861751265523    1.87313095977881    2.46583255458896
C         7.13939559326303    1.50938517920100    3.51271780880827
H         7.35133277392260    0.47060088874334    3.32189523927504
C         5.10629403141505    3.82931046853780    0.41675507478808
C         3.83114869994745    4.24104554325238    0.81331195441264
C         2.77543776743227    3.35234125719470    0.64260781616397
H         1.78029876353379    3.64586976434957    0.93370725235828
C         2.98196751632002    2.10400186033122    0.09314615640289
H         2.14918082015792    1.43312717823056   -0.04930038413986
C         4.25603704780921    1.70369421219655   -0.26856476016374
H         4.39665235749102    0.72064143196594   -0.68465274305315
C         5.34366054455083    2.54929417133303   -0.10546390274725
C         3.56738752022248    5.60095315836449    1.41976492350938
H         4.52291746711223    6.09206648571576    1.63322748070754
C         2.79651143374456    5.47839762781792    2.73879013476543
H         2.79897904379273    6.43459136814027    3.25600896651710
H         3.24112222553358    4.73013812231952    3.39097783134210
H         1.76239826136107    5.19794272010220    2.56279493705173
C         2.77432570254265    6.48028876735265    0.44785463003682
H         2.59588459873186    7.45575648043631    0.89295901247075
H         1.81337274823049    6.02594751045185    0.22219494989268
H         3.30717591577943    6.62459246151376   -0.48854796557532
C         6.74366098820467    2.11284143279754   -0.48207369339616
H         7.43844357885006    2.52300167678536    0.27971326735750
C         6.92735672962353    0.59614994113179   -0.47648439489889
H         7.98251201422941    0.35433488234927   -0.58502680585386
H         6.39888738214864    0.13187502279552   -1.30465364574517
H         6.57136238608520    0.16666767921715    0.45652778189329
C         7.11871979557830    2.67633375138766   -1.85624840806015
H         8.13348683334719    2.38691637138675   -2.11909742524486
H         7.05390333260452    3.76154972082243   -1.87798396014136
H         6.44403142009589    2.28196560655739   -2.61268983113869
C         9.33444883611594    6.20874946708251    1.22221306057598
C         9.51910227739215    6.76192561386815    2.49555512745769
C        10.78910973546730    7.21054756822216    2.83275950473993
H        10.96325070885391    7.65726347915433    3.79701975215590
C        11.84060230282017    7.10330885846311    1.94046110659730
H        12.81920144408253    7.46167265994935    2.21967132812003
C        11.63850838333318    6.55169536149724    0.69157890176368
H        12.46465695536368    6.48750223972854    0.00153215117713
C        10.38228336412382    6.10031484689263    0.30251468694874
C         8.35050363157270    6.90459857082571    3.44463151431974
H         7.71294813069687    6.01353423533519    3.32623483197403
C         8.76486294800841    6.98082907773075    4.91301201198451
H         7.88030586472671    6.91623150013490    5.54270745904315
H         9.25500946246557    7.92456673589748    5.13670225048974
H         9.43570696902076    6.16479151932737    5.17370235131825
C         7.53487848305983    8.14731651390161    3.07115876417054
H         6.69298716622338    8.25857987490249    3.74983468274235
H         7.15126488264658    8.08376734716752    2.05553022132127
H         8.15612943273685    9.03677170440888    3.14684826031564
C        10.19095625690159    5.55006093377543   -1.09300121401647
H         9.17369445002154    5.16221011510346   -1.19708999898348
C        10.39182486789919    6.66226514924417   -2.12719499945531
H        10.18087407234459    6.28496032658730   -3.12458993978541
H        11.41609520961980    7.02400625043083   -2.10832049253977
H         9.73351280128389    7.50566794569358   -1.93296117171342
C        11.14536789451844    4.38951863642824   -1.37916707127790
H        10.94274859260304    3.98476907507225   -2.36794163206375
H        11.00732552184023    3.60003164095954   -0.64712976519269
H        12.18251153657300    4.71159348155361   -1.35480477646600
C        10.18613079132555    1.88369838750318    1.44356638058337
H         9.82115136383766    1.89138818615705    0.41385919260227
H         9.73657305771420    1.03376912240493    1.97047660041883
C        11.72179679399180    1.83513960813895    1.53542246959827
H        12.18373978730918    1.74269167525053    0.55536278143617
H        12.03756378327915    0.98606061814628    2.13942954339307
C        12.08973889834626    3.15586786318430    2.22058074456055
H        12.93544195835345    3.05627169931172    2.89475753121627
H        12.31075335841416    3.93054037030506    1.48734522340685
C        10.80195361820469    3.49806250024635    2.95838874688829
H        10.72810801234423    2.91716206583023    3.88700587363809
H        10.68371340581172    4.56015766972195    3.17350623704051
N         6.17790683163992    4.77316909916414    0.45589173309660
N         8.02626709837670    5.81922245506923    0.80481152131250
Ni        7.81042230729124    3.45776646277834    2.54006107902749
O         9.77160624536950    3.11708630626774    2.04558065307790

