54
CSD_code = JOLGAS | q = 0 | S = 0 | Stoichiometry = C17H27BN6O2W | MND = 6
W         2.83298798351526    3.01031099969350    1.30452431886279
O         3.63100532262107    2.09088057263477    0.11721850462067
O         3.57809871272562    2.66675038228849    2.79402413185571
N         1.17033734199728    4.19535492690339    2.49708295868839
N        -0.16739391344973    4.12562915906458    2.28421589816754
N         1.22439713528690    3.58689690397028   -0.32844595167942
N        -0.11970562948506    3.61752017826399   -0.14947582283269
N         1.14157848877401    1.61780537096716    1.57064670823988
N        -0.19507330068953    1.79047519037787    1.50149765440049
B        -0.73183387248151    3.20462830549233    1.19522732502607
C         3.85027251977841    4.97088745683919    0.90109099517351
C         2.93960711766794    6.19132350866258    0.62206709752443
C         2.69879755770267    5.21104768663717    4.16865567978767
C         1.35761036640540    4.94558954064332    3.58798742113500
C         0.11966356770992    5.37664509803568    4.07277970357971
C        -0.82416083111143    4.83337827685196    3.22204760537215
C        -2.30354378920277    4.96520309268743    3.27625131902456
C         2.81776933943583    3.83485399794067   -2.21532788480745
C         1.45624931771733    3.83579908150414   -1.62150314957102
C         0.24077011511938    4.04661211863662   -2.27851470598655
C        -0.73642018644927    3.89660609062853   -1.31294847771433
C        -2.21061565464960    4.01081802437770   -1.46316199627970
C         2.77900999866960   -0.14772233888983    1.98034541543238
C         1.38251085198895    0.33346073398399    1.84551116058869
C         0.16171882422691   -0.33768092182120    1.95608553866446
C        -0.81541997173981    0.61991455508574    1.73137326260899
C        -2.29296069622002    0.46112413738938    1.72790174144212
H        -1.90814252033095    3.22639554574808    1.16737158941431
H         4.53993516685495    4.91253494244065    0.03790676660000
H         4.50869630273686    5.27729905235874    1.73586063384952
H         3.53368992724023    7.09439214001718    0.44330684374684
H         2.27844021828156    6.40777295630291    1.46280250901262
H         2.31697686411990    6.04153899077251   -0.26158199489119
H         2.62476480901032    5.28043134930577    5.25172845767298
H         3.11079982994249    6.14726319767824    3.79382217040309
H         3.36821416911853    4.39021358900866    3.88973535552258
H        -0.05890057789477    5.99362464475337    4.92964052335983
H        -2.57761522298644    5.63342299526192    4.08792710114040
H        -2.77040058452801    3.99666800819014    3.44662978458387
H        -2.68948242801683    5.36707491803249    2.34155986066394
H         2.77716232204500    3.44670671707217   -3.23082417141939
H         3.46733623875715    3.20454339323940   -1.59835462155381
H         3.23126436442583    4.84207039947647   -2.25149636838225
H         0.09786347667699    4.27055087462033   -3.31589865717045
H        -2.44853452619772    4.30617249346554   -2.48129576286911
H        -2.61128075550702    4.75377053404757   -0.77644129320362
H        -2.69460936883265    3.05889967825262   -1.25202519320505
H         2.81390685869641   -1.20933183008636    2.20957466474796
H         3.28409585834617    0.43297951339736    2.76336514953842
H         3.32223089391961    0.06397234081424    1.04999903822053
H         0.00850770037229   -1.37573300636102    2.16960331080985
H        -2.54919649855630   -0.57344244562757    1.93738148017282
H        -2.70618659835833    0.73811535746107    0.75974947491043
H        -2.74899263519680    1.09778152150397    2.48389689699812

