45
CSD_code = JOLQUZ | q = 1 | S = 0 | Stoichiometry = C22H14CoN4O4(1+) | MND = 6
Co        2.71457270872458    6.09763902107085    7.54216098282583
O         1.14710058614190    6.16575760576084    6.50874435422187
O         3.82287014966853    6.00111378257262    6.02819864408814
O        -0.26373909663937    7.60322849840901    5.56247019436144
O         4.81659790114820    4.53832569803887    4.67723858445910
N         2.66928332307426    7.89416541782511    7.40522829690805
N         2.71591717415825    4.29836244746861    7.43653932363461
N         1.57099967782800    5.78013823319841    9.06821710595152
N         4.31809251229295    6.44327339316217    8.56468310779442
C         4.67557192783431    7.75022422830101    8.54142430482290
C         5.14331817077689    5.56578410624884    9.12694508478964
H         4.83106257733748    4.53024918871687    9.12557088110210
C         1.72326895469683    8.42443536393153    6.63822218650813
C         1.23394217965947    4.47421592818072    9.20005637763278
C         3.71311943650553    8.60592094330213    7.84797288962473
C         1.89512735132724    3.60045329152005    8.23116326728195
C         0.99242445115367    6.67235560960808    9.86586873382133
H         1.27899896777852    7.70666302493674    9.73207165564622
C         3.78980072532911    9.96667091041528    7.56845283942955
H         4.62129654753375   10.55709145079367    7.91730783819273
C         0.74527853666666    7.34542967031578    6.16291632354113
C         4.08170685102881    4.81277414924113    5.58817837347639
C         1.73908163424591    9.77423062857087    6.31873093118770
H         0.95911763730626   10.17935269663311    5.69383116484779
C         3.33578261872452    3.74811884809650    6.39854855891127
C         2.78398761296517   10.54913422051181    6.80621692325963
H         2.83110615742186   11.60187274356608    6.57378283001969
C         0.06042381150185    6.32515629146659   10.82950554452974
H        -0.38511491335753    7.08926942984110   11.44515806668360
C         0.31092631054330    4.05373662589889   10.15079676710771
H         0.06007711600173    3.00882066270833   10.23178184664663
C        -0.28848406834858    4.99069789221279   10.97509379513573
H        -1.01647432859925    4.68795604076924   11.71123816167867
C         1.72940956291166    2.23467271986560    8.02427900575426
H         1.07343423023693    1.65548288348367    8.65348235458633
C         6.35389506138810    5.92924784164606    9.69271201673176
H         6.99014023885249    5.17643820952099   10.12845362600825
C         5.87301487845357    8.18671064105559    9.09663053049877
H         6.13303656321937    9.23192694430209    9.06118094355731
C         6.72757118510682    7.26484883597542    9.67676919657931
H         7.66760972640258    7.57983884016063   10.10177696021497
C         2.40743153647918    1.63202165691146    6.97116757427071
H         2.28526225240304    0.57492736943480    6.79196573133192
C         3.21397812057216    2.39196750059683    6.13340588099632
H         3.72807544153999    1.97049851375398    5.28426023935428

