49
CSD_code = JOLWOY | q = 0 | S = 0 | Stoichiometry = C24H24W | MND = 6
W         4.50600471102264    6.75233618284374    7.94774226272796
C         2.99421403371697    8.31544227097228    7.56366738085006
H         1.99331951863020    8.30069337091538    8.00416540072585
H         2.92153693650174    8.66057755774945    6.52411538276053
C         3.93290353480402    9.11594522443342    8.35526954399072
C         3.59918426016219    9.85620139799213    9.50147575819418
H         2.56596897869497    9.89372890312550    9.81970591880022
C         4.56370273262984   10.54171345155763   10.20345782306146
H         4.29242554676796   11.11395624006402   11.07854543859282
C         5.89387726928379   10.51903967992172    9.77928029288462
H         6.63919863967252   11.07424486877271   10.32985325929972
C         6.25238062558007    9.80995764034594    8.65613771001572
H         7.27990319638207    9.81078866871579    8.31793042483143
C         5.29399428685261    9.09156573880786    7.92244667938656
C         5.57714936496585    8.26453572252559    6.74635460069655
H         6.64773164378994    8.20926372931393    6.53016570553462
H         5.04952028834787    8.61485370632093    5.84956394657630
C         2.91083452621605    5.30115185828815    7.47564232107367
H         1.86659410949238    5.44394107608453    7.76757167267582
H         3.17703365077819    4.24433752410184    7.60715248581712
C         3.17346307171460    5.77971304862873    6.11541661632834
C         2.20424117823434    6.28889213325570    5.23535251308947
H         1.16733498489130    6.29596489515213    5.54362347268430
C         2.55829066080996    6.75588859013841    3.99057035668195
H         1.80200800384069    7.13730256418072    3.32013769013530
C         3.89195281099470    6.72188486231299    3.57822475753157
H         4.15496854050236    7.07669131035725    2.59241962944964
C         4.86439372043667    6.22230690816010    4.41343593817774
H         5.89378736209106    6.17816835339001    4.08370125060369
C         4.53804374629487    5.74668505048882    5.69411379870008
C         5.50031873226442    5.24420952992684    6.67855281446156
H         6.53288635704626    5.34015924063791    6.33104535778837
H         5.31210197602564    4.19832873311190    6.95441155916541
C         6.31433639308940    6.67901103664263    9.21236359508307
H         7.32531106253024    6.58071589760645    8.80661758177301
H         6.33298602396370    7.38761457716718   10.05073558162060
C         5.74197875163488    5.38294054651767    9.58667074688553
C         6.41653014504515    4.15251825784138    9.52469926413518
H         7.45699911527049    4.13872338400088    9.22888762292354
C         5.77515532976169    2.97999130053123    9.85121164803065
H         6.30788298520485    2.04128559220055    9.80790857272580
C         4.43972998990069    2.99722719900146   10.25871536150290
H         3.95139738814676    2.07148532040823   10.52599361750350
C         3.75346662271853    4.18701890609414   10.33896531234902
H         2.72566157298571    4.19960061185863   10.67607692335408
C         4.37640006812179    5.40102126246640   10.00558544068366
C         3.72543183430123    6.71430010596944   10.01252722092592
H         2.65980178042386    6.64364560688151   10.24777314931486
H         4.20026193746277    7.41393036221783   10.71271859789496

