107
CSD_code = JOLXAL | q = 0 | S = 0 | Stoichiometry = C46H56MoN4 | MND = 4
C         7.41269333453094    4.05103717812186    7.65247734915373
C         6.87067876154357    4.15518172194070    6.28717147470945
C         5.76142421719564    4.94291076308429    5.95722614330544
C         4.94642755246660    5.65514756714412    6.88822893680514
H         5.05548993871536    5.44466724722852    7.94071866702314
C         4.05699754402056    6.57780653005214    6.43636773307448
H         3.44972955264788    7.14439550028606    7.12533920344562
C         3.90377267047000    6.78157152923341    5.04416805970884
H         3.21157090479364    7.51911769297821    4.67199074294901
C         4.59058451242185    5.98160985603252    4.17283678377036
C         4.31461676591905    6.00622486533152    2.69143951848508
H         5.02347524326054    5.32842911950271    2.19256567596606
H         4.44814189564818    7.01575401542612    2.29598229914476
C         2.90288233272424    5.53634079249119    2.43972704177715
C         2.03097349444594    6.25323651055055    1.63305155626570
H         2.36550463775837    7.16397657419243    1.15601562035109
C         0.73433661386130    5.80905665916535    1.43331470325701
H         0.06577135914060    6.37426606101404    0.80038431788616
C         0.29334238289344    4.65039518752705    2.04785885614974
H        -0.72022097016781    4.30952539195169    1.89708964291853
C         1.15677646814912    3.93108092707855    2.85874723176853
H         0.82163057360209    3.02984845482947    3.35083878139470
C         2.45367184044603    4.36954531600725    3.04874750882421
H         3.13137076653262    3.79867910799514    3.67870987840857
C         7.60562808177063    5.18476576963660    8.44380814095019
H         7.34168433274683    6.15971158274009    8.05882519096784
C         8.15424724776291    5.07363159016592    9.70703302854189
H         8.29908776351655    5.96117829441543   10.30599674601270
C         8.52585694929605    3.83502510426298   10.20306725967602
H         8.95517639108360    3.75204021813981   11.19041353321494
C         8.34478578176362    2.70458179266562    9.42381929707074
H         8.62781078894117    1.73409408809153    9.80549789256893
C         7.79571937921720    2.81048500307687    8.16104210807722
H         7.63393919890769    1.92403274952105    7.56756194482973
C         8.88105939644455    3.26528360054541    5.27797582130912
C         9.78361983519513    4.34848235382912    5.29661533695062
C        11.14282630739155    4.08439585165818    5.27548074306495
H        11.84871262273116    4.89894813342435    5.27958141898564
C        11.61836261338665    2.78642023321863    5.23475413513637
H        12.68206068478865    2.60130893090710    5.21944791913485
C        10.73024701035846    1.73141966672590    5.19658243351398
H        11.11064686706801    0.72297441026262    5.14652477443066
C         9.35851329860321    1.94488636900620    5.22065919809232
C         8.42484220070793    0.75562693185893    5.14930203188447
H         7.39584905546840    1.08474601897968    5.37639369111581
C         8.81287960640142   -0.34196876345377    6.14490139489909
H         9.70947430637953   -0.86493094846566    5.82094017448107
H         8.00913124803073   -1.07152698263945    6.22137928200454
H         9.00009686542006    0.07270967444007    7.13314092291256
C         8.41109510367514    0.19796212924414    3.72179597727600
H         7.96026087183082    0.93110866894210    3.04934013270767
H         7.82698644402500   -0.71971279013576    3.68413397905770
H         9.42265280491667   -0.02014951875945    3.38473963053190
C         9.26203822892643    5.76882269006265    5.22224553198877
H         8.35018677369639    5.84223898997877    5.82287149055553
C        10.23707422774166    6.81335800555437    5.76234068323229
H        10.58839761701357    6.53293343727836    6.75300766390521
H         9.73409851017641    7.77570401621021    5.83671144270925
H        11.09342540060760    6.93684433160949    5.10368173221914
C         8.89172552483823    6.08355658931512    3.76670366690031
H         9.76744773920006    5.99218195659615    3.12682285511811
H         8.50526315762570    7.09821156439632    3.68705224180420
H         8.12564629041915    5.38939945251697    3.40818516200105
C         3.82430233299690    1.25564645060425    4.99509675132125
C         3.42519405689795    1.04388880631122    6.33706207240537
C         2.35468859893554    0.21236794031014    6.60952737986127
H         2.04942608604755    0.05292422281616    7.63416532643264
C         1.66783838025973   -0.42271518000242    5.59142981002855
H         0.83438419770811   -1.07117964651205    5.82001619814854
C         2.05791448917460   -0.23067163798237    4.27616064198281
H         1.51900668989467   -0.74223215727178    3.49284357940189
C         3.11833953280192    0.59459699104621    3.95386025051263
C         3.58534091654229    0.77382618266172    2.52875344927923
H         4.01932044024155    1.78620494128247    2.44140744978351
C         4.71119183996106   -0.22995702465577    2.25319644180466
H         5.53831819396987   -0.04058060686079    2.93822649787598
H         5.07170489423776   -0.12714840163628    1.23163512555646
H         4.35411053505614   -1.24827669332881    2.39833794743714
C         2.47995479630084    0.63343047962694    1.48478098867696
H         2.14324804834877   -0.39788266507394    1.40395272891826
H         2.85769860376678    0.93896176731878    0.51101062234809
H         1.62934738552268    1.26345632291259    1.73274973756190
C         4.17448559391496    1.73000215753316    7.45485148536069
H         4.99836383551689    2.29929128841705    7.00219347982369
C         3.27132654016062    2.71891913097106    8.19376511638758
H         2.88002433574780    3.46298161169870    7.50189575676115
H         3.83277748098932    3.23065207535980    8.97405108626616
H         2.43173339246089    2.20432254726393    8.65585178339232
C         4.77929052915350    0.71595014940122    8.42720726756847
H         3.99955019908568    0.16011218450611    8.94280287845062
H         5.38785911555921    1.22667276497131    9.17197411882308
H         5.40715257294349    0.00641356516864    7.89174636949949
C         6.76611705428241    2.80332417332665    1.00251553341535
H         5.90862570597860    3.10384100652997    0.37469906706533
H         6.93351773844464    1.72526864092625    0.83212887846605
C         8.01480023898596    3.57410173235698    0.53205692565398
H         8.12063597044737    3.45171728438414   -0.54801331365849
H         7.86343438777734    4.63568901367069    0.74390630831900
C         9.27313923248629    3.08702638975599    1.23876260510233
H         9.14111483224653    3.14369357634836    2.31941072167389
H        10.13032585924550    3.69682565592290    0.96256266914807
H         9.48421259396542    2.05377088539596    0.97070927403597
N         7.50543314077715    3.52249283584978    5.24209666897866
N         5.48102945929009    5.05527641086785    4.59421184288114
N         4.83327537651377    2.09772194273608    4.71448709394946
N         6.46984344355303    3.04052632035672    2.35846318207764
Mo        6.02240243070124    3.20046079977886    4.03197586485445

