91
CSD_code = JOLYIS | q = 0 | S = 0 | Stoichiometry = C47H38ClO2P2Rh | MND = 5
Rh        3.05773977826146    3.41513321356466    3.33421293696473
Cl        1.39738941504101    1.77189068654612    3.71906200471263
P         4.15883348239354    2.02173628784623    1.90742073915772
P         1.78076593311631    4.58029979823907    4.80645242008617
O         2.28363178893288    4.76206713709464    1.07826054277238
O         5.86090418584365    6.99691508957223    4.99652497679835
C         3.07247361950124    4.86535531726682    1.98181245178542
C         3.99954706304600    5.95842737203134    2.22852121519829
C         4.84133497889384    5.76907991411782    3.25914114936040
C         4.78095879853778    4.45476350827067    3.93163975771194
C         5.74148947224793    6.81945699473726    3.80086539638338
C         6.47232930362031    7.64030191664552    2.80654909980323
C         6.83659996560703    7.12812818601224    1.56378046575529
C         7.55393110620121    7.91127874125961    0.67885492651504
C         7.90058250691936    9.20962743135112    1.01753308438780
C         7.54123482248729    9.72385008771707    2.25373404649135
C         6.84068257753585    8.93993405253497    3.14953436384162
C         4.65827198110788    0.48034170812408    2.74231512886453
C         4.99839806814526   -0.68469913746162    2.06514659758763
C         5.37651993256889   -1.80827199087545    2.77808263980579
C         5.41534780529870   -1.77789316571169    4.16296192665169
C         5.07071134465555   -0.62056325557788    4.84196623611935
C         4.69257446488949    0.50395024489321    4.13310065504516
C         5.73112142013272    2.63852417554747    1.21653411516807
C         5.65967013386592    3.59017477757498    0.20152226865279
C         6.81490636768231    4.13748483750790   -0.32269015547323
C         8.05199567103689    3.75600434779746    0.17574087335931
C         8.12734119732698    2.82516736442612    1.19756673448627
C         6.97219542845361    2.26698770065787    1.71892433173014
C         3.32746231209085    1.44832272813911    0.39079508346241
C         1.93817587460065    1.44633287188470    0.34920045740398
C         1.27709072689753    0.99881375812928   -0.78058857454119
C         1.99678756816083    0.55017551484181   -1.87461795470052
C         3.38229148635918    0.55393997492613   -1.83955111146737
C         4.04940480973306    1.00324196793308   -0.71515240813463
C         1.47683569892725    3.60625931100334    6.31514479890751
C         2.58264869695812    2.97287376663257    6.87884948850125
C         2.43969043920116    2.18047550792518    8.00084113827392
C         1.18582420193199    2.00325881964321    8.56413980603179
C         0.08154002764783    2.61509819200113    7.99674778675647
C         0.22104803085460    3.41359829400510    6.87428617342270
C         2.39662713177402    6.17430713540523    5.44893516380902
C         2.32950192297233    7.27224761499874    4.59447532894442
C         2.84777013365778    8.49155249898198    4.98275192210914
C         3.44387289762384    8.62584409052465    6.22662857316315
C         3.51478606982258    7.53876973526405    7.07915393986176
C         2.99805165840384    6.31465908843663    6.69262877095669
C         0.12903477385699    5.08375540980941    4.23749825835625
C        -0.63161020355065    5.96712897788224    5.00230199890557
C        -1.88738808750145    6.34897082233361    4.57069844846803
C        -2.38932096166771    5.86085087979618    3.37354157570655
C        -1.63129273730810    4.99291009680978    2.60668023922121
C        -0.37399932846666    4.60331540790654    3.03522105373424
H         3.95939465981834    6.84092516741003    1.60453466249303
H         5.68140271145340    3.88828740928859    3.64694859354344
H         4.85107564736169    4.61628930629200    5.01799791157605
H         6.57840766159324    6.11210827337570    1.30562049597465
H         7.84569084801683    7.50762989895635   -0.27937626919234
H         8.45645117558072    9.81911755132640    0.32042862553605
H         7.81473027822870   10.73418696994676    2.51890838892816
H         6.55971162912600    9.31656808074409    4.12173777557110
H         4.95692882210396   -0.71580559765580    0.98596270418740
H         5.63721490205435   -2.71459124464030    2.25093433937937
H         5.70654873513941   -2.66050141343421    4.71331419745809
H         5.09004797126216   -0.59926647776638    5.92179122198825
H         4.39979678481949    1.41334703749937    4.65327989432623
H         4.69067980556359    3.88764694392519   -0.17705722067780
H         6.75214394166894    4.86304427980395   -1.12092012427218
H         8.95523670928118    4.18691281947582   -0.23018427743161
H         9.08977142557137    2.53038596766410    1.58966057957363
H         7.03320440117405    1.53513931607746    2.51323891087925
H         1.38109120352313    1.79012305912725    1.20864151497104
H         0.19751977001428    1.00211760130471   -0.80643779062845
H         1.48178079545089    0.20070777007405   -2.75765029372798
H         3.94640360938025    0.20791073682149   -2.69399863268663
H         5.13127014474636    1.02049385874151   -0.70360760983373
H         3.55720336312028    3.09856711964830    6.41928015319788
H         3.30190030391139    1.69256872011491    8.43252347169246
H         1.06924902030312    1.37717038839780    9.43653937224071
H        -0.89884757695205    2.46318300109464    8.42443689570380
H        -0.64943309166896    3.86903261963079    6.42534319501339
H         1.86189643274905    7.15934115746626    3.62438549736925
H         2.79383915915244    9.33758112194080    4.31239535718998
H         3.85651279832223    9.57699850529366    6.52859098138884
H         3.98290394672095    7.64045062181361    8.04695797412758
H         3.05787183770520    5.46855109670458    7.36327596452932
H        -0.23145381981900    6.35627604828758    5.92974812276767
H        -2.47665293404408    7.03032494292380    5.16756034989650
H        -3.37129507290471    6.16294596883984    3.03941035955932
H        -2.01777053206786    4.61861373342959    1.67040436177450
H         0.22015677616915    3.92536183314238    2.43809945876220

