46
CSD_code = JOMJEA | q = 0 | S = 0 | Stoichiometry = C13H22B9CoO | MND = 10
Co        1.57600946061734   -0.21742016135668    4.45590421154647
C         0.98233419644184    1.75613981647486    5.41744465590164
C         1.53149703981906    0.85849656332720    6.39524957747981
C         3.10473634566802    2.54040396998787    7.03059298416901
C        -0.09476497827136    1.07838310911260    4.77028998424641
C         2.60066377996331    1.27399487767617    7.20233454746573
C         2.56720191602880    3.41767989453620    6.07451325805539
C        -0.26082465088455   -0.17425902519409    5.38797922508266
C         0.78034812322671   -0.35979169605200    6.33200448648347
C         1.51565625581075    3.04409536932232    5.27254137992804
C         2.42132582992792    1.61687286273968    2.31145676859039
O         1.08994638672505    2.08815113093204    2.23200955765240
C         0.51930683175486    2.03566671707112    0.94796909843457
C         2.54483032873186    0.13675700345866    2.67760937946703
C         3.49085757776826   -0.23104280797561    3.87323162193533
B         1.62694977925739   -2.20974184113568    3.86861250246475
B         3.22122457702795   -2.92212884231989    3.52237913746759
B         3.84243919967984   -2.23294651814101    2.00751788491126
B         4.09999908168566   -0.50554975487209    2.28519527748203
B         2.67148614475057   -1.02998326601454    1.42796807480490
B         1.30550372736320   -0.98814719395833    2.57172882342409
B         4.42961276975747   -1.62866830103233    3.57747473847982
B         2.08648609116422   -2.52101316112682    2.18338055683527
B         3.06447268649620   -1.62362043173952    4.71107320679259
H         3.44999437727014   -4.02872588087533    3.84675476471448
H         5.51439686255183   -1.68151414145574    4.02645943404135
H         3.92370786247748    2.88071518568397    7.64773426714747
H        -0.76230436775165    1.52673908108178    4.05505127910160
H         0.23930332397080   -0.67953542098984    2.18238036527106
H         3.00921253332070    0.60867961990006    7.94927599183970
H         2.48511781063465   -0.67327249768409    0.32196967679187
H         3.34495788428399   -1.72225987296266    5.85062301663725
H         4.51969926946274   -2.84472192565556    1.26725204064392
H         1.52121544434459   -3.34922731376804    1.56836275324589
H         2.93153507506283    1.81788207810550    1.35853552729723
H         2.89980115315185    2.23589962025404    3.08202755206245
H        -1.08450628333730   -0.85045115864827    5.22450535595830
H         1.09587543520324    3.72192225375049    4.54412564013353
H         2.98765782871103    4.40905730595583    5.98364799702519
H         0.76307939713154   -2.82522197698047    4.37871941699638
H         1.08152770799251    2.66098664000639    0.24281194592782
H         4.88333792101291    0.26551839350745    1.86740646676592
H         3.96741451091674    0.60823297919987    4.38149766758051
H         0.85004007138292   -1.16949978694511    7.03935215494097
H         0.47315907474727    1.01512993659536    0.55803930552727
H        -0.49072139305155    2.42963856820619    1.04730644125186

