37
CSD_code = JOMLUS | q = -1 | S = 0 | Stoichiometry = C18H15Br2CuP(1-) | MND = 3
Br        8.68429093365117   10.32807103535450    1.55923506309346
Br        9.42422130604773    7.17429508254476    4.55746379810171
Cu        9.74516087783834    8.87694260132503    3.03185819573599
P        11.93933961327160    9.46109376831177    2.83556210406041
C        12.02194758711999   11.28135484523453    2.84904539041080
C        11.36403660227530   11.89877327062400    3.91168964185540
C        11.33134852143118   13.27506475015386    4.01132360014344
C        11.94835056860034   14.05040965056995    3.04250928673224
C        12.59619925277786   13.44283943186662    1.97995862947939
C        12.63549251807925   12.06399095141770    1.87866217782368
C        13.21409135574835    9.05236405037020    4.07835886520027
C        14.18244896929165    9.95014791890247    4.51833191145396
C        15.09507923511484    9.56288713182549    5.48101888892636
C        15.04857864806849    8.28480046206069    6.01676267874625
C        14.07797468425771    7.39219693571803    5.59260673123470
C        13.16102568201443    7.77445999975325    4.63134336245656
C        12.76997491175362    9.02386215816232    1.28243809800435
C        13.91826635511539    8.23825327471256    1.21535260480308
C        14.42854493371636    7.86368059832691   -0.01329239176467
C        13.79847508476753    8.25525257529732   -1.18407824284668
C        12.64058265385268    9.01698134444982   -1.12292785686005
C        12.12224463988536    9.39264524690078    0.09955110805435
H        10.86972002680274   11.28380245809328    4.65510202050017
H        10.81551761076977   13.74555134734110    4.83653125975176
H        11.91629510075476   15.12887012714663    3.11194176018845
H        13.07263409729671   14.04790363375757    1.22048285974976
H        13.14065931506006   11.59670136728131    1.04479096455409
H        14.22138210387057   10.94820624424870    4.10266727706479
H        15.84970980608395   10.26213727952199    5.81620911471752
H        15.76555563560163    7.98991009422910    6.77069849194529
H        14.02668665606875    6.40028052661642    6.01788108331527
H        12.38642147980166    7.08715866459324    4.31878440747332
H        14.41246948051934    7.92659623616425    2.12560977052012
H        15.32563969383910    7.26056993114640   -0.05814044305161
H        14.20354185670362    7.95956409233030   -2.14206005185085
H        12.13663983849477    9.31155798427631   -2.03262186891960
H        11.20735236365377    9.96932292936681    0.14864970919363

