66
CSD_code = JOMMAC | q = 0 | S = 0 | Stoichiometry = C19H37BrN4NiO2P2 | MND = 4
Ni        5.75292337526868    7.75611161828219    2.78205613248010
Br        9.11808975938863    6.76480202200817    4.99756229334847
P         5.02914558878303    5.74419160236937    3.20143876017093
P         6.74714801344448    9.58673572931468    2.10707396812175
O         3.47680569654046   10.40835468648841    8.07503578285309
O         3.88461926810068    8.84835069223355    3.79217749328180
N         3.68308272587941    9.64069185300410    5.95025431185648
N         5.39618179142451    9.33089253961804    7.56666192200581
N         6.55122225893071    7.84739700350229    4.58368555884615
N         7.34774945866169    8.12028981368520    6.69155930545333
C         4.15240803842396    9.82639683959839    7.25176539861901
C         6.12905581782269    8.68407532212165    6.61535604390007
C         5.62309078333461    8.52867798758181    5.33043366441851
C         4.35736771741917    8.99484709569906    4.92522708986850
C         7.53276522625104    7.64587581109466    5.45280291014152
C         2.36311183399322   10.17894019199451    5.67476918991730
H         1.62746963903055    9.71557017454494    6.33214845710032
H         2.13554279141932    9.96141013767392    4.63334636133158
H         2.35573294180541   11.25436716641807    5.85182897232715
C         5.90059456048592    9.50725890047970    8.91166023074235
H         5.96320688548790   10.56984491828023    9.14971905808594
H         6.88530195643148    9.04913760159302    8.95334947861684
H         5.22784522931131    9.03267317883510    9.62706311519193
C         4.20420609508710    5.54060773011310    4.84347213340837
H         4.93943860224397    5.83508998902698    5.59785826095289
H         3.38914277139940    6.26819078454595    4.88170864452412
C         3.68222770711874    4.14467967577915    5.15830730111936
H         2.87603701760146    3.86162148532707    4.48679565788216
H         3.29249080001280    4.12431363717612    6.17483969460795
H         4.47463847229654    3.40339633570833    5.08687855967357
C         6.40111844064490    4.51375707360758    3.27075757664400
H         6.87279432955093    4.59557244709737    4.25322263054738
H         6.00064743791108    3.50353994359270    3.15761603409673
C         7.42430451511094    4.82190406101613    2.18592017596024
H         6.99667906241361    4.67321962749244    1.19630247352496
H         8.30434829252461    4.19102303431769    2.28726268235164
H         7.73544151265604    5.86536117312786    2.27540087510003
C         3.84028200463926    4.96570690167992    2.02799532220217
H         4.34276110542939    4.93028653209191    1.05801113462089
H         3.62225974720419    3.94102984334487    2.33726174836492
C         2.57227894057845    5.80237009578008    1.92191992754943
H         1.97033319322632    5.71428467663389    2.82337374442216
H         1.96814091329895    5.48767032642311    1.07364091182429
H         2.84020071915395    6.85213999359033    1.79380805550601
C         8.03971061382116   10.23902564044415    3.26182406285058
H         7.53518660556175   10.41313802748980    4.21765855456991
H         8.76123380086448    9.43208726432647    3.41790373090234
C         8.77121158085355   11.50481128713025    2.83545751590483
H         9.34765820625254   11.34339258276490    1.92841163869702
H         9.46446433533722   11.79954206115628    3.62155769771963
H         8.08020070282620   12.32804205716152    2.67174067291799
C         5.63737167735050   11.04585644178412    1.89794093364776
H         5.36732877198114   11.39449200349673    2.89860489173608
H         6.19162823021749   11.83944406853986    1.38908223973733
C         4.37599963360174   10.68911823246061    1.12343028655484
H         4.61773321882142   10.36678766156584    0.11318198198812
H         3.71095539591619   11.54835241237854    1.06166304371036
H         3.85793387428793    9.87748462212658    1.63161670442892
C         7.60926762589519    9.54464238590904    0.47712916917711
H         6.83801192487896    9.39758627502336   -0.28263233420590
H         8.09076822575141   10.50751174277378    0.29344660257502
C         8.61185880644240    8.40157235681441    0.41297320830246
H         9.40648587417678    8.53391407700900    1.14401937701622
H         9.06222014076245    8.33675655973013   -0.57544094528230
H         8.10271664566953    7.46190190450602    0.62511211426277
H         5.26662107110473    7.62808208157326    1.48628980922629

