73
CSD_code = JOMNEH | q = 0 | S = 0 | Stoichiometry = C26H38Cl2N4NiP2 | MND = 4
Ni       -0.39956984982441    4.55685872508138    6.77474934594755
P         0.09293376334436    3.70259306370152    4.75395046159112
Cl       -1.28949632045447    6.90309347454900    5.69656824390468
N         0.93340846151963    5.84997581836484    6.53627590426658
N         1.18711059863266    7.94740138125297    5.70807123028912
C         0.39287810990435    6.94784893376142    5.96901770529692
C         2.25768891875200    6.17581110732257    6.67511245114475
C         2.40808560764637    7.49058020767257    6.14833690209060
C         3.65011756046608    8.11116605538761    6.14601191653093
H         3.76005813068903    9.10614366349587    5.74510714442370
C         4.71712892040545    7.41517965266243    6.67303773972696
H         5.69578403987427    7.87229975969333    6.68645954595048
C         4.56537480858383    6.12976443208041    7.19747432030302
H         5.42779773745930    5.62374644906799    7.60643053536420
C         3.34249479268958    5.49323570365717    7.20816729523231
H         3.23251453471507    4.50103419418728    7.62003652184657
C        -0.48649114688263    1.97555729185673    4.43159183722247
H        -0.04532909268015    1.33761149063321    5.20175196645845
H        -1.56788911819701    1.97084541116738    4.59706752140165
C        -0.17017077475542    1.40805707607268    3.05383251233812
H        -0.63661525767168    1.99063004710687    2.26356182337578
H        -0.55581705134151    0.39206994202486    2.99062515420854
H         0.90103362877026    1.37007885565503    2.87309355842922
C         1.87492882164788    3.66661265725728    4.26708348394726
H         1.93150565189668    3.42960550535991    3.20117489712155
H         2.26395140715140    4.67945843895142    4.40458893912943
C         2.70506334128374    2.68199752260446    5.07869468258054
H         2.59840038580207    2.88235587391951    6.14116929551528
H         3.75734384818826    2.77688082782213    4.81829092682863
H         2.39566526624732    1.65615694825952    4.89181754216473
C        -0.58285939822758    4.64239338973915    3.31539656882187
H        -0.23512575273760    5.67466331078991    3.41072611982301
H        -0.14510249508309    4.23170114710623    2.40164144501250
C        -2.10394905855514    4.60304830074755    3.24900222738497
H        -2.46281587742142    3.60195442175340    3.02115655214622
H        -2.46642889231796    5.28061839826277    2.47862420295576
H        -2.53212036548332    4.90716413572026    4.20124024587305
P        -0.89190114395610    5.41100603594938    8.79561837690879
Cl        0.49000230284078    2.21021119821041    7.85280683024593
N        -1.73259828992296    3.26369933121994    7.01273308032908
N        -1.98678154131523    1.16635953994127    7.84101828585235
C        -1.19233975167842    2.16576088993756    7.58012430872813
C        -3.05695111352970    2.93814366459914    6.87387456753631
C        -3.20763711230060    1.62340941071370    7.40066226426131
C        -4.44978446542339    1.00305166266034    7.40290900620649
H        -4.55992944456445    0.00808500923342    7.80378641424437
C        -5.51662970424874    1.69923291642630    6.87580816526869
H        -6.49536210171267    1.24228086294542    6.86229345741829
C        -5.36460681548604    2.98463191799675    6.35140737642635
H        -6.22690683763280    3.49080066112714    5.94237867353695
C        -4.14160635025311    3.62093635405619    6.34079066869105
H        -4.03142469184986    4.61312693970784    5.92894482421086
C        -0.31238559406834    7.13803796253732    9.11777009154267
H        -0.75368945341434    7.77598506925737    8.34768910994368
H         0.76898934682199    7.14275661166418    8.95213192865432
C        -0.62853144299630    7.70541978371160   10.49560781928274
H        -0.16195607674395    7.12281396971839   11.28577837637216
H        -0.24288419946741    8.72140499083983   10.55878999517505
H        -1.69971061326626    7.74337077621719   10.67650789021360
C        -2.67385561211250    5.44681632213305    9.28260189853110
H        -2.73026102775140    5.68377850404305   10.34852245027264
H        -3.06284881080134    4.43395624524423    9.14510161427880
C        -3.50410178400319    6.43145871172816    8.47114505810561
H        -3.39758844406133    6.23113841944376    7.40864849485178
H        -4.55634097859882    6.33654893623512    8.73170094003818
H        -3.19468299215504    7.45729322749794    8.65802258178258
C        -0.21580435315214    4.47104397425313   10.23391187164796
H        -0.56363093140786    3.43879760477630   10.13865125695663
H        -0.65334923799562    4.88178499030969   11.14773717201186
C         1.30529800902694    4.51032701521790   10.29996542106751
H         1.66425795322016    5.51141606894056   10.52768730630467
H         1.66791068293083    3.83277178543785   11.07029251578604
H         1.73323473699405    4.20614902131950    9.34764114066888

