45
CSD_code = JOMRIM | q = 0 | S = 0 | Stoichiometry = C14H26ClNOSiW | MND = 8
W         2.69568868100286    1.77137178152498    2.81589823279311
Cl        3.63417008875109    3.83159875073955    3.44520978497070
Si        0.15010427700496    3.43342402799221    2.71632016624047
N         2.47502143179759    1.28203873050388    4.49397373593538
O         2.43047637301118    0.78153307446283    5.57594486221695
C         2.85121756296321    0.03054914697519    1.24766040294101
C         3.91049779973983   -0.08651231387474    2.20556314647233
C         4.74667427411559    1.06935418551740    2.06689609982982
C         4.21863278967701    1.87445841342781    1.00365110822795
C         3.05576711572152    1.24300065999508    0.50579593934171
C         1.90602627740846   -1.07933214935620    0.88513638884719
C         4.20260484535829   -1.29362539182886    3.04763553243690
C         6.05736544511933    1.29486573638685    2.76096269896193
C         4.91676569758996    3.07923728884634    0.44582965370826
C         2.27948036832104    1.62260415302910   -0.72109724024584
C         0.55243273111847    1.57114622720682    2.53050751063427
C        -1.71369723134632    3.74859561824014    2.41042882617978
C         0.54216984886265    4.08860800018516    4.47973372135708
C         1.07302481740357    4.39326555611540    1.32372838479790
H        -0.00648759990477    0.99074148155730    3.26727438202081
H         0.22202778161438    1.23920968788642    1.54301862731144
H        -1.94392957188775    4.80505062608538    2.49225607569409
H        -2.32413260179370    3.22148288037132    3.13498633168070
H        -2.01960792647229    3.42105233099980    1.42276541363908
H         1.05057515894291    5.04789126450150    4.44497681665232
H         1.18122730083954    3.39832202943715    5.03109116584158
H        -0.37150903073738    4.22015993267192    5.05169600005596
H         1.05281474614467    5.46184359316553    1.51580322486121
H         2.12053062367313    4.10026144227279    1.24367611500202
H         0.60065046833126    4.22962315328029    0.35883343082653
H         2.44611863639721   -1.85842164483206    0.34327865777022
H         1.46829876502942   -1.52549755869863    1.77661314573417
H         1.10081319272709   -0.72040076032038    0.24930733726697
H         4.87716675614565   -1.96756102247314    2.51639700228540
H         4.67396171070019   -1.00719350292829    3.98634857941978
H         3.28608114540067   -1.83287589992283    3.27793682237219
H         6.86834764860196    0.82839368123955    2.19699627565195
H         6.26913269519557    2.35924566225570    2.85102616296889
H         6.04427108977779    0.86198063288424    3.76051704854812
H         5.89050526577910    2.78987447062317    0.04749220508983
H         5.07898628603270    3.83015039118939    1.22179830866586
H         4.34241524013017    3.53636655347590   -0.35722639872754
H         2.54108604740231    0.95326293870094   -1.54319389527570
H         2.50016874233065    2.64137340394768   -1.03096092913997
H         1.20506423595904    1.54508273662127   -0.55548686183574

