71
CSD_code = JOMTUD | q = 0 | S = 0 | Stoichiometry = C30H36ClN2PPd | MND = 4
Pd        1.57452347386728    1.68681428018060    2.75592556598566
Cl        2.21660616775964    3.95487091192742    2.98299069370929
P        -0.14127979240718    2.31319997635622    4.02715161502169
N         3.36941805118011   -0.19290397996704    1.41866203326616
C        -0.85398627797515    3.60330143557533    1.70691843388280
H         0.08398606298898    3.17879739427215    1.33193295669743
C        -0.16756936146927    4.36165782884638    6.01273087409485
H        -1.08637659783931    4.73768393202771    5.58835731088560
C        -2.33582228590003    0.61668030185839    4.00869781078059
H        -2.40220248091239    0.89812860164725    2.96561573545559
C        -1.64940556830258    4.38450260774233    0.88827356650446
H        -1.35032735386489    4.57907165167204   -0.13126293576780
N         3.21244547728073    1.24233572671436    1.51582296065900
C         0.40210636613069    4.99726832805766    7.10350302892753
H        -0.08616125104084    5.85949441634254    7.53413946004469
C         3.71467126578896   -2.92149973513917    2.39362674899463
H         4.12241072932863   -2.98664347578932    1.38807184865657
H         3.62862085565945   -3.92467619507007    2.80549643499370
H         4.40817025476029   -2.34483986490007    2.99991901073103
C        -2.12244773951121   -0.11839065243020    6.66884877085231
H        -2.03672296635610   -0.40837556317129    7.70601960970800
C        -1.34210259511803    1.18256241553143    4.80445808391651
C        -1.23367308574667    0.79907239700799    6.13627240152890
H        -0.45550428801055    1.22451161287173    6.75505640776769
C         1.67717274315411    2.81666522609238    5.97817640784379
H         2.18640625282878    1.98191406765048    5.49304781802503
C         2.36066000132920   -2.24585204736845    2.35390823928521
C        -3.22777133768242    4.65357834036275    2.67862957076765
H        -4.15809790560240    5.05677229636569    3.05195349985537
C         2.23691655960048    3.44926468183709    7.07012062761017
H         3.17751152428091    3.10426046413978    7.47383787712074
C         3.14196846779750    1.83290513906177    0.18264494177440
H         2.26499791778428    1.44030519666621   -0.33998790919328
H         4.03842138171178    1.58529211000010   -0.39844203952835
H         3.05532374871053    2.91788676764368    0.27979038309857
C         0.38457879545844   -1.36710955982400    3.01249604474719
H        -0.42399830329411   -1.06781482078745    3.67884419459249
C         2.28778735382168   -1.13124878039541    4.70434268282647
H         3.24040882166518   -1.55836054394199    5.01160592181367
H         1.65639968920698   -1.02558006020150    5.58600786329631
H         2.47313551342080   -0.12583689044297    4.29754267374559
C         4.41469834227128    1.70432693473671    2.21371696862330
H         4.37445059166644    2.78901731041600    2.32708302803490
H         5.30987701666936    1.41631619419392    1.64999331250617
H         4.45585436912358    1.23765473036574    3.20386090881225
C         0.46691183558578    3.26361474209840    5.45102860967813
C         2.36607704936907   -0.81423228494789    1.89747478080604
C        -0.03732166124093   -2.41455750552415    1.96814264170937
H        -0.64661739563507   -3.19572508228467    2.42265839766937
H        -0.62498783242752   -1.96625433734037    1.16639877063759
C         1.04783535023890   -0.22880961975160    2.23466939655656
H         0.48305700351514    0.00624618378456    1.30963410619716
C        -1.23395877803681    3.36050526257542    3.02451354523636
C        -3.22352769053423   -0.29650035793722    4.54466235774698
H        -3.99430636094023   -0.72787884227619    3.92285118565468
C        -3.11870582651740   -0.66480599260198    5.87707061166179
H        -3.81071069561298   -1.38039960896840    6.29579266305011
C         1.59016222853281   -2.04719510873413    3.69553550171819
C        -2.43895472555741    3.86980275481481    3.50071958253142
H        -2.76526440238271    3.63548296356589    4.50522907768565
C         1.25792918617852   -3.34762861940929    4.42337504336539
H         0.90163029020398   -4.12474521751231    3.75667695146787
H         0.48800769032974   -3.15812123008287    5.16957839807177
H         2.14192284240797   -3.72214781736397    4.93565243067736
C         1.31345002173662   -2.95957387223019    1.46853831708838
H         1.48849887085318   -2.72949043149758    0.41705927301576
H         1.38887494855594   -4.04049865009608    1.58447799979243
C        -2.83047649084455    4.91844205353009    1.37748439606173
H        -3.44889380218876    5.53446343153202    0.74127484836324
C         1.59492526686938    4.54023762976593    7.63642153335873
H         2.03466447337855    5.04358844804410    8.48487813728958

