99
CSD_code = JOMYER | q = 0 | S = 0 | Stoichiometry = C46H40N10S2Zn | MND = 4
Zn       -0.65513306482250   -3.83004891548095    4.51844521633137
S        -4.93330562214783   -4.32405792276041    3.73696572658489
C         8.58009867550002    3.98476617174974    0.50944914441774
H         7.72362469721032    4.39613970781826   -0.00897598402640
C         9.77666210690007    4.75518187729232    0.50432743943705
C         3.15103394156794   -0.96186125966644    2.07610067804034
C        10.93581369862184    4.25556636285546    1.30441629149803
H        10.80981046060132    4.60316493641353    2.33653525272946
H        11.87121330209524    4.67854236329067    0.93150442744911
N         1.90061320896523   -1.59278664128083    2.20206718194604
C        11.00102562439757    2.72255695242646    1.30141627976099
C         6.91116458437043    0.98483398114760    1.82138171224747
H         7.67162335281471    0.51642064871913    2.43144789098917
C         8.47565735277088    2.77983719290316    1.13229684578902
N        11.97769616702617    7.35800650660278   -0.24290882140901
C         5.62085680198684    0.33278309069133    1.86658084577865
C        11.02431717770646    6.72002168744880   -0.21501178751495
C         3.32411892625390    0.07036385304580    1.15896544034374
H         2.49771952823142    0.38456507495103    0.53943329886403
C         9.66270558103749    2.17419707624312    1.81900471566867
H         9.64956914573712    1.09044302345978    1.69057648732366
H         9.58009096631961    2.37864124529285    2.89228725859340
C        11.26494125802019    2.21446948101663   -0.11769524007310
H        11.35920834738138    1.13082315222928   -0.12078189118025
H        12.18950585132301    2.63731685210780   -0.50432478406110
H        10.45603968784825    2.48814349625180   -0.79147833970847
N        -2.19432919905847   -4.59448362002968    3.83183662162081
C         9.85375223260011    5.93607657061252   -0.18800011807781
C         1.35807341247930   -2.04586493891493    3.34508443650639
H         1.82391705925521   -1.94967484679780    4.30486660117201
C         7.20707324761829    2.10841564455027    1.13888461952626
H         6.43478440760447    2.59885574046986    0.56172993007905
C         4.54219780539991    0.70700700343987    1.05748051036467
H         4.65385555520056    1.50282537776477    0.33874003049819
C        12.13225962934958    2.26045950241202    2.22051022599924
H        11.98363107807806    2.62423687368587    3.23521320087009
H        13.08846056382522    2.63331274197906    1.86152040048686
H        12.17922538289328    1.17420963472531    2.24929471035016
N         0.18299223857310   -2.59447049653558    3.13362578897598
C         5.43061594619146   -0.72412229000664    2.76555619834565
H         6.25139100012952   -1.04448622078388    3.38964430713694
C         4.21546690766690   -1.36509447440749    2.87677563868463
H         4.09605001739288   -2.18727584461020    3.56620799587320
C         8.76929574543359    6.45321477598076   -0.92581430283445
C        -3.36917993915153   -4.49478027768961    3.79668671661262
N         7.88543145362819    6.87113875028379   -1.52666716976454
C        -0.04615429046043   -2.49955996001111    1.79398576120153
H        -0.94414901942581   -2.88624658337805    1.35650097908427
C         1.00768475206137   -1.87230764327626    1.20294616941520
H         1.20240044353258   -1.63907132076104    0.17709684428664
S         3.62327990148413   -4.35562954199777    5.26378044931956
C        -9.89331095867344    3.98038197316907    8.52790630643354
H        -9.04213566195586    4.38472671004892    9.06041424147860
C       -11.08991399509089    4.75080571602071    8.53126157567918
C        -4.45853968265532   -0.96337268036996    6.95972912973421
C       -12.24125965604982    4.26188845264965    7.71345880554596
H       -12.10533942293998    4.62326197843028    6.68734366178693
H       -13.18027615602796    4.67983214998908    8.08294773584067
N        -3.20962748340216   -1.59825702895153    6.83825113799208
C       -12.30623295167462    2.72900521306181    7.69525303169087
C        -8.21425052668992    0.99349380884294    7.19879984518734
H        -8.96975386303554    0.53284320141020    6.57677388084116
C        -9.78285286860324    2.78336235930439    7.89095639369888
N       -13.30078266281673    7.34040909202615    9.29416268179347
C        -6.92545194963162    0.33822368110243    7.15938415884075
C       -12.34582406896019    6.70462802351019    9.26610630546710
C        -4.63431040534097    0.06471322193128    7.88096167136002
H        -3.81094724027933    0.37301378580336    8.50748512793455
C       -10.96281350657689    2.18785653513570    7.18342110139192
H       -10.95130910674253    1.10239058318571    7.29629295832361
H       -10.86918192971819    2.40782909419827    6.11410166670120
C       -12.58385901057491    2.20176997974009    9.10472408285660
H       -12.67749979091678    1.11813719566266    9.09228081493536
H       -13.51238053151864    2.61897229310856    9.48799362473291
H       -11.78169813763849    2.46665856613399    9.78996981812586
N         0.88183390842713   -4.60789421063878    5.19416136855134
C       -11.17424813837448    5.92214622285019    9.23881789599563
C        -2.66158641061721   -2.04567771399240    5.69568775729916
H        -3.12022237414171   -1.93956822670592    4.73348825001939
C        -8.51500105054269    2.11048402641212    7.88996803444820
H        -7.74802238797476    2.59331565065525    8.48046580260169
C        -5.85101435738014    0.70486846296677    7.97754199711690
H        -5.96474761243206    1.49784393872084    8.69910251801815
C       -13.42832040546052    2.27916665764712    6.75904047873528
H       -13.26986109856202    2.65654577816846    5.75081656945772
H       -14.38807805045259    2.64705782499900    7.11363321569790
H       -13.47474608606710    1.19339769057249    6.71520055421782
N        -1.49102357815572   -2.60236041078984    5.91113999834972
C        -6.73255140103205   -0.71459273946767    6.25616035119995
H        -7.55018589466239   -1.02929454923319    5.62511603232370
C        -5.51885489547404   -1.35900594545320    6.14986078106317
H        -5.39749519846337   -2.17801259279330    5.45698934382061
C       -10.09752531168144    6.42984476446548    9.99427544737215
C         2.05761109743078   -4.51579988225707    5.21809971272248
N        -9.21952505025406    6.84185680883142   10.60770293634551
C        -1.27068550796507   -2.51861803753616    7.25298045949247
H        -0.37784843454841   -2.91339900082341    7.69377319207872
C        -2.32524903504645   -1.89003534508690    7.84142228423331
H        -2.52589924364945   -1.66315761802125    8.86756342205214

