71
CSD_code = JOMZES | q = 0 | S = 0 | Stoichiometry = C30H24Br2N8O4S2Zn | MND = 4
Br        5.50899871225605    6.22140210543563    9.47974314343161
Br        1.01600531194924   14.48928183647478    4.65536063069684
Zn        4.40269764952736    9.80400121465101    5.11730408161350
S         4.49329281536342    7.23537996090731    4.48589619307685
S         5.52709793314357   11.58668368751593    3.53590322983692
O         4.44349424934317    6.09672878732559    5.36036576751241
O         5.67122492003190    8.08960699408880    4.62855170055805
O         5.23480461067344   12.98702192472513    3.40787646317164
O         4.44963691744434   10.68014267069409    3.13692897451550
N         6.32178604369020    9.51537490679564    7.35591906991836
N         8.28865570114162   10.65259772263857    7.62270212407874
N         5.77726152059440   11.11175044005411    5.05635766861957
N         3.31059578717721    8.30070090018505    4.73197369203984
N        -0.18255322925285    9.08874326692577    4.21691879578469
N         1.52348646539687   10.51807014517319    4.74836133793512
N         2.66040668130161   10.87557337797233    5.35740184185091
N         5.02526705025898    9.39763470332555    7.04606670594833
C         5.60295093081716    7.74337074334045    8.41322037786376
C         6.71158404831415    8.53090270687696    8.18726627951802
H         7.71542810721749    8.46477215023856    8.55332094084470
C         7.18539130998270   10.53014417846260    6.90486640811922
C         9.19229250759347   11.54948076855703    7.27508177009570
H        10.06781477982416   11.59611487437456    7.90576845837032
C         9.03143049922778   12.38235887049992    6.17486887691637
H         9.78471282114554   13.11238125888482    5.92374339570542
C         7.88947733322286   12.25820223593503    5.41110066799448
H         7.71070800274211   12.88633589876675    4.55163316126170
C         6.91289750145240   11.31061058577396    5.75783160025961
C         4.41529313161808    6.68637951571615    2.78964340554784
C         4.33586355091391    7.63724321643112    1.78949299664576
H         4.32815735560217    8.68511307062396    2.04824149692842
C         4.26431757240132    7.22023760845123    0.47162772960335
H         4.20033583495528    7.95558796409671   -0.31680391007791
C         4.26890525199929    5.86613852567276    0.14931560437984
C         4.35087105862362    4.92955987805487    1.17561599497671
H         4.35554437414028    3.87606974978368    0.93763403059042
C         4.42382957588683    5.33573671978910    2.49601569093072
H         4.48675713246296    4.62770159942462    3.30772514461634
C         4.20997365620525    5.42202110785610   -1.27916751021895
H         3.69291109167782    4.46993710616395   -1.36872846792127
H         5.22060760487389    5.29251524852695   -1.66707182602549
H         3.70503773271193    6.16088565070907   -1.89588519736330
C         2.00180369216945    8.10452584783324    4.47143226800317
C         1.10681272053960    9.19901014698654    4.48721675345267
C        -0.68440159911562    7.90368932546213    3.92485625762132
H        -1.74405542066972    7.88570138583319    3.71705871536986
C         0.09333631537679    6.75284222896139    3.88882160314841
H        -0.35008762745442    5.79778461938047    3.65518704438171
C         1.44233300506410    6.85528714928227    4.15759075254450
H         2.08960788813631    5.99173534872601    4.15153007992491
C         2.67069625344945   12.19998307519402    5.41708280219831
H         3.49120395102174   12.73034971288429    5.85754139178373
C         1.50864006002347   12.70200291003287    4.83452967407046
C         0.79246566211345   11.59976478951239    4.41849785971070
H        -0.15762581571807   11.51250561034169    3.93287988005409
C         4.57115404169267    8.32523410249575    7.68067057747409
H         3.54853089704558    8.01689393849122    7.59210629608703
C         6.96750850792211   11.19521337823479    2.55459896823380
C         7.51500246111025   12.15737909768628    1.72675297418568
H         7.05754143204026   13.13387390523615    1.69257447933678
C         8.62812327529923   11.84411396935337    0.96740816260892
H         9.06087676648115   12.59039038026931    0.31758402188846
C         9.19626031222250   10.57538027084644    1.03253297782404
C        10.41597196607219   10.24659378516276    0.22916179967984
H        10.45108105209139   10.83556035703410   -0.68380439348135
H        10.43982534240305    9.19039212539836   -0.02668377979005
H        11.31092560117386   10.47188057243215    0.80954238098493
C         8.62527007220714    9.62423213615026    1.87329478302842
H         9.05771106904924    8.63623550176474    1.93119592164153
C         7.51138620257651    9.92717803596471    2.63701795333576
H         7.06325001000539    9.19367041513330    3.28943325453423

