49
CSD_code = JONBET | q = 0 | S = 0 | Stoichiometry = C16H26BCl2NSi2Ti | MND = 12
Ti        1.95660614564997    1.36453004067926    9.03255107957098
Cl        1.84450209056655    3.48738605971490    8.39116107599039
Cl        3.72265176673124    1.76677620772261   10.31437602943508
Si       -1.95466724423644   -2.56131917178441    8.90258291759645
Si        0.03310714841121   -3.05160910956979    6.54844268340453
N        -0.46204295475662   -2.14734528481840    8.01558275234193
C        -3.40865074276033   -2.33730912004319    7.68783392694103
C        -1.78469972065082   -4.34106921167737    9.57201197955847
C        -2.27070744029425   -1.42659734960970   10.39512954185478
C         1.89474026494453   -3.44315748531152    6.64569459233684
C        -0.38377475513739   -1.95237494628154    5.04826321265784
C        -0.86401253503655   -4.72211904838503    6.38893443946295
C         1.60569482291411   -0.46562535596226    7.68996382322375
C         1.60451866472772    0.67955979536790    6.84872477933987
C         2.91428848013910    1.21011311825290    6.79320985759376
C         3.72659050872665    0.44406685041343    7.64037437772294
C         2.92046507877253   -0.55931950060675    8.22641094812100
C         0.17510817762144    0.00158700538907    9.52411484012598
C         1.00079944304429    0.05651251122240   10.67955571077479
C         0.92215976305461    1.35387002702021   11.23678726317377
C         0.10587645049757    2.13259390552332   10.40497148542537
C        -0.32540195496788    1.31810048078529    9.33164717892927
B         0.31791539361084   -1.05517806229749    8.37279693059648
H        -4.32277816140108   -2.74460912935741    8.10806313463299
H        -3.58573699461618   -1.28486089463351    7.48592273108946
H        -3.23699221848038   -2.82636497021327    6.73540146918979
H        -2.25870308270577   -4.42331418060795   10.54530651153017
H        -2.25813670000126   -5.06928481900060    8.92349921135989
H        -0.74453091129128   -4.62827536166811    9.68900622071905
H        -3.17785018651406   -1.74068177259212   10.90344003949417
H        -1.46163911292664   -1.46529880391322   11.11631734504043
H        -2.40117485654692   -0.38989042151049   10.10615135354329
H         2.50191809233251   -2.57841334705411    6.40192772553338
H         2.15423536961675   -4.23330356920554    5.94814070987649
H         2.18057892310177   -3.77579778828034    7.63892533981887
H         0.28207476355317   -1.09726674604206    4.99637310745760
H        -1.40109794122519   -1.57589561443083    5.09583266347107
H        -0.27949739416091   -2.50401090955582    4.11942487592685
H        -0.62217901788497   -5.15629438247132    5.42389752829765
H        -0.54295723614638   -5.42699960657105    7.14720458321720
H        -1.94217921652773   -4.64045824704591    6.44608606385589
H         0.76890587785138    1.02183669979104    6.24812556953455
H         3.24185245907575    2.02626434092648    6.16251054046185
H         4.79375547478986    0.56104371220846    7.77731574883970
H         3.28613929186331   -1.35757173548850    8.86277740631643
H         1.49293832250262   -0.79185178623152   11.14247656167421
H         1.36592899846367    1.67077514865142   12.17154236533008
H        -0.19279769162420    3.15741214211907   10.58341964629183
H        -1.03464370267317    1.61673968649054    8.56719012131443

