54
CSD_code = JONCIY | q = 0 | S = 0 | Stoichiometry = C25H23Cl2NP2Pt | MND = 4
Pt        0.82573318168475    2.93776063949288    3.45010893650809
Cl       -0.27045045932893    1.98824895475363    5.19313580329303
Cl       -1.01859692382534    2.75434858016790    2.14450256600294
P         2.26748677040259    3.79418474851323    1.86455954198628
P         2.90230120162919    3.14491112969229    4.43715515653168
N         3.49654286418783    3.99501101243530    3.05862003858220
C         4.90607957977722    4.16288006947313    2.75398678351648
C         2.34633605723471    5.32216699693614    0.89666338395685
C         2.68855765435214    6.53121422547640    1.49366563409263
C         2.65532434536200    7.69966405550725    0.75545780437081
C         2.25650934453295    7.67096504575021   -0.57158858449037
C         1.88274789500604    6.47276156240999   -1.16004222061098
C         1.92080885117454    5.30014384834540   -0.42906623032994
C         2.91714086699141    2.51748318779489    0.74362753646255
C         2.34735409908443    1.25178064364933    0.83071447148069
C         2.85303932923728    0.21034365043026    0.07478678916237
C         3.93027145602236    0.43089476532261   -0.76848349983340
C         4.49250559442448    1.69421897596419   -0.86656803862007
C         3.98868540403746    2.74053768872795   -0.11500334985565
C         3.82553551120861    1.57731757100035    4.45800455012729
C         5.18517002041032    1.50504953221386    4.74349826149746
C         5.84008001049317    0.29006124236676    4.65259632688715
C         5.14468867078581   -0.85149076799065    4.28517849962045
C         3.78715481586415   -0.78451744476029    4.01582371478675
C         3.12835441639157    0.42821046964957    4.10047312365826
C         3.57394951534959    4.07294731431032    5.83914774692716
C         3.75305489588157    5.45051274298929    5.76578196516034
C         4.18776362092867    6.15035740868477    6.87598783386749
C         4.42019093837976    5.48424346493232    8.06889017744268
C         4.20980799484620    4.11675724550611    8.15469268863401
C         3.78216787874993    3.41051186589524    7.04610324603898
H         5.42788325254652    4.49315996066561    3.65366033146971
H         5.01662901006113    4.92916689819029    1.98496244536608
H         5.37009771134902    3.23735882959141    2.39752591958371
H         2.97665983834926    6.54679974830888    2.53518436003516
H         2.93143651785099    8.63655183993973    1.21666482148495
H         2.22570801534888    8.58558680193476   -1.14457942928896
H         1.55570626271193    6.45485116762713   -2.18895887025795
H         1.62052369475468    4.36182709204483   -0.87490842430679
H         1.48796166511613    1.10681772835337    1.47927959924279
H         2.40608923071104   -0.77013565234966    0.13816304057090
H         4.32869605002920   -0.38059992094938   -1.35916445728439
H         5.32510399174360    1.86479193180230   -1.53335840221065
H         4.41529145573900    3.73013546881205   -0.20381771323459
H         5.72323949529101    2.39177299720488    5.04892826279495
H         6.89611994583493    0.23212998520903    4.87249334217538
H         5.66253855885932   -1.79680213554769    4.21891491127349
H         3.24337250672103   -1.67713724092184    3.74624118449212
H         2.05989383933791    0.49822190519136    3.91753457402404
H         3.54831065515366    5.96429144912336    4.83730404997234
H         4.33753543306653    7.21830770369608    6.81511161420604
H         4.75485755947601    6.03347617409718    8.93612947083758
H         4.37439749977175    3.60223042849201    9.08959118956231
H         3.60425240890446    2.34551641383828    7.10478752263956

