33
CSD_code = JONQOS | q = 0 | S = 0 | Stoichiometry = C14H12Cl2N2O2Ru | MND = 6
Ru       -0.73616999249369    9.11122010066644   10.00782567816958
Cl       -1.87770286739352   10.80802542220873   11.25483433490811
Cl        0.39960616166986    7.15614298869998    9.22436716882487
N        -1.87827360432583    7.79985712678115   11.04859868408324
N         0.38969044062875    8.90580875397635   11.68009938547368
C        -3.02125346915621    7.25627429676271   10.64213881265701
H        -3.39830351882697    7.57444138342419    9.67851493642689
C        -3.22121142222644    5.92198497647198   12.62372304727162
C        -2.03114092082068    6.49820670402213   13.04298878210225
H        -1.60938569581965    6.21009141595633   13.99225567268467
C        -3.71935888729423    6.32706578519900   11.38736901357394
H        -4.64188926513248    5.91806921620835   11.00679251261136
C         0.39742613570725   10.29806843128929    9.13566091948030
O        -2.53289331922917    9.33510937756995    7.61741625369652
C        -0.12084934525877    8.08703633735691   12.61397033850524
O         1.07978316583099   11.02398856965308    8.58110585495930
C        -1.38223289481894    7.43405752047464   12.24166804122563
C         1.70658030733961    8.54591439498003   14.11858849474869
C        -3.94327641232876    4.91200225245506   13.45010789997356
H        -3.41336151009082    4.70663338950631   14.37595600389742
H        -4.05154002734294    3.98282259729728   12.89277881617143
H        -4.94332030704156    5.27089105117544   13.68882139625169
C         0.51479592987811    7.89409230733266   13.83776807240193
H         0.08143508037182    7.24144970560531   14.57820718302074
C         2.22019928476300    9.38023992496461   13.12821964474917
H         3.14503257916743    9.91264701353700   13.28442978041170
C        -1.85751835289242    9.23839263227451    8.53106906486397
C         1.53449873788761    9.52963735994445   11.93927750761795
H         1.92351352023944   10.17880440196026   11.16519063221327
C         2.41460464266592    8.37047171477465   15.41942563570413
H         1.87645987007203    7.69077282971000   16.07410237858910
H         2.51895028945219    9.33216839786601   15.91944256349608
H         3.41590566682591    7.97751161989864   15.24978548923047

