95
CSD_code = JONQIM | q = 0 | S = 0 | Stoichiometry = C42H46N2P2Si2Zn | MND = 4
Zn        7.20500038073684    3.97116125349725   12.74924410089573
P         4.66747172546615    4.47205878803461   14.18447538330527
C         4.40809184106800    3.47665942488104   12.70380048835882
C         5.53704934231864    3.14969447199186   11.94592103300261
C         5.29209982060870    2.33735394348732   10.83498589354408
H         6.12509947048503    2.03497763144175   10.21098454528915
C         4.02088766334790    1.90040274233972   10.50053582384365
H         3.87494780239890    1.27863650474299    9.62691339402162
C         2.92798228566050    2.25332973159415   11.27836728222706
H         1.93635527948401    1.91218681319582   11.01559258661310
C         3.12146582671293    3.04303260392455   12.39396871646967
H         2.28245686399363    3.32674243801184   13.01731402869650
C         4.52532439243241    3.35427919264252   15.61466671157289
C         5.05775072041319    2.07755269258493   15.47605878038591
H         5.42654547809318    1.76561932049405   14.50686750055215
C         5.11177389385863    1.22628814299395   16.56443651578711
H         5.52288944862463    0.23347649130299   16.45379383116923
C         4.64128519055015    1.64886065560400   17.79769741715530
H         4.68244034976655    0.98479445040372   18.64852091368324
C         4.12585625133162    2.92691273295185   17.94355260966424
H         3.76990069247941    3.25949489391078   18.90803368000588
C         4.07494556183916    3.78280871051932   16.85762659488742
H         3.68735951830895    4.78592621348401   16.97278976572362
C         3.26422191802764    5.62429744595853   14.28484693201162
C         2.03520121559782    5.28173703986374   14.83797572648057
H         1.89540888032629    4.30725416520264   15.28637333166344
C         0.99423429104350    6.19315138092606   14.81839008583006
H         0.04075127849501    5.92911449585648   15.25299839701637
C         1.17101172662533    7.44069882202625   14.24186706127002
H         0.35476118734383    8.14807155977897   14.23065131947282
C         2.39106870363003    7.77925662591561   13.67839319813068
H         2.52578150154412    8.74979446379398   13.22363269256704
C         3.43381813779711    6.87193306551286   13.69770560925509
H         4.39607970055785    7.11056544396695   13.26868661635253
N         6.08934670201450    5.16609051544459   14.10142407407142
Si        6.81227121947366    6.09151266197584   15.38223835462571
C         8.28335933810011    6.98875722243613   14.57705380770729
H         8.82273261827727    7.58344849273331   15.30632593445745
H         7.96736264938705    7.64628298542134   13.77437557877834
H         8.97254552773256    6.26125801798113   14.16068881920256
C         5.61985292063222    7.37686309940132   16.14850476947512
H         5.36930546178061    8.16874652243541   15.45035297347533
H         6.07567972761200    7.83826541606435   17.01848408480447
H         4.68834226044806    6.91956422620844   16.46761102570451
C         7.47224114237061    4.98671763869956   16.79665893367535
H         6.68139450533219    4.42358734166378   17.28303417606695
H         7.96705885668090    5.58518122686457   17.55517722714432
H         8.19619077817469    4.27462009622547   16.41349683449380
C         8.87295870457377    3.14972385011699   13.55259062792321
C        10.00190231452639    3.47664791576979   12.79468781407768
P         9.74253028495278    4.47206278748296   11.31402412366481
C         9.88467750301989    3.35427854456637    9.88383578221269
C         9.35224864055573    2.07755297747815   10.02244237604358
H         8.98345269106980    1.76562021977899   10.99163338856657
C         9.29822097444237    1.22629073493757    8.93406301034438
H         8.88711547589087    0.23347429953333    9.04470751749322
C         9.76870688873934    1.64886473610630    7.70080152483740
H         9.72756647022609    0.98479246946194    6.84998107096924
C        10.28413800208026    2.92691572248366    7.55494773706875
H        10.64010078890936    3.25949511316994    6.59046858239706
C        10.33505469388092    3.78280879459471    8.64087546462190
H        10.72263646625905    4.78592790736045    8.52571101579842
C        11.14577963820678    5.62430063940636   11.21364606863658
C        12.37479904420628    5.28174008320986   10.66051566078303
H        12.51459201949962    4.30725463663411   10.21212289588383
C        13.41576781345134    6.19315059799690   10.68010705964424
H        14.36924886311052    5.92911546415054   10.24549354218107
C        13.23899208161567    7.44069565258762   11.25663439358107
H        14.05523915458391    8.14807424941497   11.26783782844425
C        12.01893529763963    7.77925443891861   11.82010808395107
H        11.88421985558674    8.74979649927806   12.27486093251314
C        10.97618474446253    6.87193384401421   11.80079119016150
H        10.01392374928930    7.11056517454105   12.22981211739722
N         8.32065560744291    5.16609498844600   11.39707338196734
Si        7.59773049817942    6.09151589374393   10.11625859633257
C         6.12664380194166    6.98876187881818   10.92144504757852
H         5.58726893136409    7.58345114820719   10.19217223940975
H         6.44263872428824    7.64628946565028   11.72412262878465
H         5.43745913008859    6.26126192350038   11.33781095713118
C         8.79014931139471    7.37686704323318    9.34999496975471
H         9.04070028831213    8.16874960333729   10.04814692911262
H         8.33432129664540    7.83827064167529    8.48001699145204
H         9.72165810960996    6.91956621868689    9.03088608726850
C         6.93775868120103    4.98672076280477    8.70183980288337
H         7.72860577367053    4.42359106487645    8.21546545193482
H         6.44294164090457    5.58518518630579    7.94332145289796
H         6.21381090168381    4.27462218826574    9.08500325936294
C        11.28851980007139    3.04300615055894   13.10451348938338
C        11.48199769853007    2.25329798131463   14.22011155212187
C        10.38912382200934    1.90046136905612   14.99799564895686
C         9.11793882977711    2.33748506605620   14.66359658739387
H         8.28486035518970    2.03486490537951   15.28744236276119
H        10.53504231030003    1.27862845549277   15.87157177974557
H        12.47363352254023    1.91218560687474   14.48291484801228
H        12.12754675507765    3.32676528831452   12.48120096596315

