57
CSD_code = JONSEM | q = 0 | S = 0 | Stoichiometry = C24H27Cl3P2Pt | MND = 4
Pt        0.13812069187335    2.75873289127700   13.89039126346855
Cl       -0.84162604552128    2.44857402825282   15.97432024881764
Cl        1.26574698395977    4.62117942819573   14.59209380524245
Cl       -2.92033990380106    0.99380657357640   13.45987240441066
P        -0.96542551839979    0.84263898057821   13.53411511041710
P         0.93250816376247    2.98747344752871   11.78157951865776
C        -0.62718372932657   -0.11680441047412   12.00906279485839
C        -1.14412968282226   -1.39866149609877   12.03093047981104
C        -1.07431056117125   -2.28682566741743   10.95222658073853
C        -0.48497590837809   -1.84140721244053    9.80279855602652
C         0.03688100861708   -0.53518864652090    9.75920517201178
C         0.55543997675489   -0.25064817951376    8.48258653773167
C         1.07051306145701    0.99056418613733    8.24200333397987
C         1.09744202507165    1.90403252610186    9.30340292151245
C         0.62861300009065    1.63976079213286   10.57899311206967
C         0.02211869956493    0.37353155382771   10.84232641389528
C        -0.28548175788036   -2.51140655074025    8.47621376467280
C         0.39877272974503   -1.44597556574436    7.59172536824173
C        -0.61673780735561   -0.40371500531019   14.80628085734066
C        -1.56671872952627   -0.92230578775889   15.67418190497351
C        -1.17641778936556   -1.81360234305668   16.65862713228235
C         0.15285558038373   -2.18127056986351   16.78126159750742
C         1.10278689764348   -1.65736879200949   15.91791398530673
C         0.72012489221982   -0.76853505257243   14.93273360121394
C         0.15828715941304    4.45758427917043   10.94690319857549
C        -1.31043876500552    4.40952207315873   11.37016202714121
C         0.81592086360567    5.76180666715888   11.37776321509773
C         2.77794526048309    3.17994373480676   11.87771853903248
C         3.27048883247929    1.98815045593010   12.69914437987850
C         3.58193398551943    3.33541424150234   10.59466475400797
H        -1.64143962836755   -1.73189196909855   12.93258213796951
H        -1.49204982476970   -3.27817918366808   11.03744153343358
H         1.45863429124123    1.27396209941640    7.27530826417687
H         1.51406268827823    2.87834741259873    9.10137370877650
H        -1.24120591988943   -2.83100060601066    8.05804679357403
H         0.33533029513379   -3.40217402074807    8.58704588638954
H         1.36979952101536   -1.78546360976797    7.22718222857017
H        -0.20739377695910   -1.19704977672171    6.71913321300401
H        -2.60067972724017   -0.61945660500654   15.59345461982525
H        -1.91335093607085   -2.21340203177754   17.33937251206623
H         0.45215808864859   -2.86900368085273   17.55814914318285
H         2.14140125615653   -1.93456338985872   16.02143736858428
H         1.45064324815596   -0.33832357024248   14.25815358514336
H         0.22022823966366    4.34587623684603    9.85848992715276
H        -1.86906567054642    5.23335890806866   10.93057490770439
H        -1.38002683037754    4.48836630865691   12.46100662325893
H        -1.77118781082566    3.47048979634789   11.05786530169031
H         0.87249325238161    5.81199633676853   12.46407263018623
H         0.22806783187799    6.60575125132719   11.02143134120037
H         1.82200222441689    5.85235292506655   10.97422281314097
H         2.88189560125982    4.08606399998746   12.48937216045780
H         4.33168455716166    2.08618361503382   12.91780756190807
H         3.11062356252827    1.05344869578740   12.16001864867449
H         2.72765627125726    1.94923986950720   13.65003516554692
H         3.57365412359754    2.41746196699586   10.01017272082116
H         4.61610094140144    3.55746829304364   10.85429033719024
H         3.21085051677849    4.15404014848053    9.98165628745188

