37
CSD_code = JONYOA | q = 0 | S = 0 | Stoichiometry = C16H12N4O2RuS2 | MND = 6
Ru        3.83900181035821   14.49485821929852    5.05291893079371
S         4.88927714751443   14.22342728096374    2.81236926521422
S         2.68997164258844   14.57385183184593    7.31475425507531
N         4.47364088793027   12.59332428407697    5.40079644038328
N         2.28336462762265   13.43558206554370    4.28180893574776
C         5.60057851402580   12.23826292541688    6.01670105894480
H         6.21847473485377   13.04007345154073    6.40303122951163
C         1.45863439100304   11.25139059413639    3.77738130976986
H         1.60157813078916   10.18406082302428    3.80073710412579
C         4.01587170974313   10.27840006846850    5.03088707925183
H         3.36308794615304    9.52012427561846    4.63195142252137
C         3.67567396358735   11.62279140019833    4.91734268652361
O         2.80366853061568   17.23184237136870    4.37739292088652
C         5.98995711269824   10.92517670055519    6.17543922928899
H         6.91040319785752   10.69821270422834    6.68952536312414
C         5.63300483116557   15.70526730747597    2.80781439335504
C         2.43377122765830   12.09781870078128    4.29580410952387
O         6.22813286721399   15.89464561881542    6.21756394689247
C         3.18072550838379   16.18883787034234    4.63638617854034
C         5.57982539924408    8.47359417973931    5.82323836978990
H         4.85562229552114    7.81321142406675    5.35491058626315
H         5.65343461473071    8.22081414440523    6.87993033345130
H         6.55738848236029    8.30265110517852    5.37485246857211
N         6.16869240338333   16.72252174463170    2.75914765485294
C         0.15030484645763   13.15924976317090    3.25422148389482
H        -0.73971964924551   13.62522167858123    2.86208713323514
C         5.18732607938174    9.90332339176962    5.67041419727383
C         0.28830178839763   11.77201421372821    3.24708193144262
C         1.16097028275859   13.94127757860143    3.77193082309201
H         1.06460422984925   15.02045536614709    3.78113873282754
C         5.32964295268729   15.35338989692443    5.77487142421077
N         1.84372390058053   11.91481169212807    7.06273982817887
C         2.18994859027689   13.01171741769216    7.17553076616062
C        -0.78783931457290   10.89676767721904    2.70176855411295
H        -0.48335144179780    9.85407198717272    2.69569873757419
H        -1.04328527474588   11.19919938246486    1.68761494779006
H        -1.68550896703577   10.99455886268721    3.31101616779973

