73
CSD_code = JONYUI | q = 0 | S = 0 | Stoichiometry = C36H28Cl4N2NiO2 | MND = 4
Ni       -2.33802710614767    8.26797542871659   12.56532024550146
Cl       -5.85832701421243    8.98389907099294    9.30989273128666
Cl       -8.36980846320752    7.28222504345008   10.09520092499292
Cl       -8.32370815984369    5.50673084368358   12.62609986864615
Cl       -5.76652320577853    5.39389303448827   14.43381453256055
O        -3.55975196551794    7.16644444563657   13.35025523877219
O        -3.59547847955504    8.60574807774763   11.29022312359683
N        -1.03238203412865    7.85427929288001   13.80945437382208
N        -1.06426695341109    9.30157147790184   11.71061918951273
C        -4.68282034384082    7.13331543037905   12.68104983392302
C        -4.70331989190939    7.94836639553920   11.51571605536189
C        -5.84606601760091    7.99084246140935   10.71389798470368
C        -6.95545017714552    7.23399810214281   11.06987652434826
C        -6.93479679336422    6.43119392328720   12.21513725609083
C        -5.80483419326491    6.37446997913174   13.02151973526533
C         0.12559237933142    8.35339338910474   13.46619443724568
C         1.47606819537069    8.34436694714885   13.99863999628015
C         2.11210753328267    7.78255425723184   15.07911137131839
H         1.58316079038827    7.16349015115959   15.78804137754329
C         3.48664428430141    8.03378185107428   15.24966893626634
H         3.98265592761451    7.58750158895562   16.09912208672454
C         4.21420692336496    8.81742730086834   14.38699233938434
H         5.26774460665328    8.98160678029994   14.55890605952930
C         3.59112865595721    9.41913612556525   13.26870526313116
C         4.18219341931643   10.25749315958184   12.29469973424349
H         5.23408089453202   10.49208698978684   12.36502367530648
C         3.42587595107853   10.77247459750091   11.26978902202551
H         3.89766441770570   11.41351337314721   10.53955174227678
C         2.05189400549546   10.50323863194532   11.12419902445655
H         1.49970220224687   10.93588564472731   10.30352921265838
C         1.44651885999930    9.68605464584444   12.04795416580073
C         0.10755471473414    9.17344861724805   12.27490389981704
C         2.22969538856214    9.15753327839201   13.10952367459472
C        -1.17856838533821    7.03593750308930   14.94310480959257
C        -1.82766798112966    7.55273614229039   16.06881306552631
C        -1.98494924382943    6.73789983091666   17.17713182616445
H        -2.48359280612500    7.13139633124512   18.05117491711877
C        -1.53324576452173    5.42550747441130   17.18162725450359
C        -0.91998827128939    4.92608598588874   16.03933469488510
H        -0.59125980854083    3.89664656855958   16.02256364007940
C        -0.73691210674512    5.70890416355891   14.91251114100236
C        -2.32710518483142    8.96390110175187   16.04579311239091
H        -2.84989310504995    9.15141908628347   15.09962048795670
H        -1.49708975208853    9.66877421870762   16.11422010355330
H        -3.00982461963877    9.14651786604782   16.87072685071046
C        -1.74145533876172    4.54448453253722   18.37461742837722
H        -2.61789940836092    3.91534950161405   18.21838270527180
H        -1.90467493200093    5.13499675447368   19.27258008804388
H        -0.88510674393727    3.89142790558366   18.52972343135722
C        -0.13286612556811    5.15253339391359   13.65902632272403
H        -0.74583085385374    5.43493835588744   12.80022581710096
H        -0.07752182080683    4.06850850694560   13.70990874811454
H         0.87307758629799    5.54296891515463   13.49841148573766
C        -1.24013534161758   10.06093762506930   10.54059629761200
C        -0.81776509414683    9.55457637384645    9.30742049719656
C        -1.02691620326239   10.31974914939892    8.17220862482981
H        -0.71190469260004    9.93221064335729    7.21375615337623
C        -1.64782938259507   11.56003639120145    8.23506552334172
C        -2.08130817173796   12.02832470575237    9.46870186836046
H        -2.58612732254120   12.98190684824580    9.52609728423559
C        -1.89720136962099   11.29288824323036   10.62644511971152
C        -0.20514930407594    8.18901810128886    9.23226012184310
H        -0.80181730799942    7.48695899896827    9.81920311376464
H         0.80887168815791    8.18846147355595    9.63470486622796
H        -0.16734723513732    7.84298585718146    8.20289450361583
C        -1.89004441231388   12.35775455379379    6.99100066761664
H        -1.83677173412872   13.42451920194113    7.19634479229475
H        -2.88564658850974   12.14010096548196    6.60373045897054
H        -1.16601561152290   12.10770856838880    6.21919988780684
C        -2.37523938976415   11.77856594034758   11.95937613769882
H        -1.53514491563282   12.09618545245324   12.57887786574134
H        -2.88872113865354   10.96276960625160   12.48249222270408
H        -3.06044015718099   12.61356682442458   11.84439242587387

