85
CSD_code = JONZIX | q = 0 | S = 0 | Stoichiometry = C44H36N2NiO2 | MND = 4
Ni       -2.11696338668846   17.83361642928554    6.06420345156860
O        -0.86569864069192   16.51418735927404    5.97878694290643
N        -0.84270766772394   19.16567409098262    6.02716779939700
C        -1.41853328719290   15.32834012183660    6.00596412299513
C        -0.68825962280459   14.10415085237241    5.90695436974360
C         0.70270192730570   14.11949566703781    5.73350656904033
H         1.19583250560429   15.07990291284200    5.69431870378180
C         1.40263051484969   12.94571059315548    5.61169638626562
H         2.47382903817880   12.95642911892641    5.47266680133444
C         0.71826257498654   11.73260483314068    5.66352751715081
H         1.26391254128003   10.80536879268597    5.56215534346422
C        -0.64668242901522   11.70323391252837    5.84001388662203
H        -1.13784382746437   10.74313486023431    5.87032959084713
C        -1.39793758902056   12.87900422732042    5.96991679129742
C        -1.40099607143611   20.35868995170315    6.05150276888624
C        -0.93490309231139   21.73217530195972    6.04700056318748
C         0.28128379068508   22.36975809546994    6.02921017041739
H         1.20958326701496   21.81811448999325    6.01555764636113
C         0.29770641268108   23.77803352593468    6.02968614174744
H         1.25769140977440   24.27399210325772    6.01686733070193
C        -0.84605355086426   24.53818373705038    6.04594052692415
H        -0.78286000162141   25.61662463856339    6.04610228301754
C        -2.11698638628042   23.91580440058363    6.06284967491973
C        -2.11698003472808   22.52243235349719    6.06321956180697
C         0.55856480256750   19.02930285501441    6.03472281878680
C         1.24318846677574   19.04366332139682    7.25396812958468
C         2.61931865523728   18.89513003025011    7.24514232345639
H         3.15613221337941   18.90221613089372    8.18348429167649
C         3.32313916503404   18.72558400606189    6.05934122924143
C         2.61929799663221   18.69312928309492    4.86399707625878
H         3.15335312592156   18.54413200318238    3.93596521103102
C         1.24149906679843   18.83774406395231    4.83140653924770
C         0.46937414147998   19.18876997586539    8.52819824335925
H        -0.38436336715301   18.50494358642513    8.51503386617119
H         0.08130518524171   20.20304003451876    8.63258008036017
H         1.09292751927872   18.96399385752002    9.38938693918994
C         4.81100367919760   18.54394222655010    6.08426047490027
H         5.24106392936084   18.71089727903546    5.09982454651106
H         5.05691391908302   17.52847082701258    6.39592218564605
H         5.27229026755066   19.22995894785792    6.79212132219090
C         0.46824341635980   18.78263252444601    3.55051280303877
H        -0.40156485079180   18.13127496106710    3.67951016183861
H         1.08313006510454   18.40140305478746    2.73969328233906
H         0.10412639405593   19.77443674149390    3.27827891543905
O        -3.36826210618074   16.51421073191811    6.14942834598409
C        -2.81547614413388   15.32835015686896    6.12187926523936
C        -3.54581976260125   14.10415779685579    6.22032477486861
C        -4.93678797162347   14.11950225461374    6.39371772564172
H        -5.42986265278692   15.07992032275522    6.43334624931606
C        -5.63679120888034   12.94569985980453    6.51492610004017
H        -6.70799622769500   12.95641439144173    6.65390523381572
C        -4.95249194283685   11.73257929742439    6.46254649935734
H        -5.49820141418022   10.80532662239580    6.56344361388387
C        -3.58754031853294   11.70321232112366    6.28611082689608
H        -3.09643471294190   10.74309869267741    6.25535729983814
C        -2.83621119852570   12.87900057397031    6.15680029378162
N        -3.39122011323191   19.16568120491869    6.10102940377226
C        -2.83295056377011   20.35869136772171    6.07601715857406
C        -3.29905207453820   21.73217641331310    6.07986433258153
C        -4.51524277084165   22.36976087042999    6.09735656827201
H        -5.44353836221004   21.81811892598565    6.11132715363978
C        -4.53167568455574   23.77803505971746    6.09613133472913
H        -5.49166502195557   24.27399281463948    6.10867042400278
C        -3.38792248892244   24.53818434088262    6.07943612503499
H        -3.45112318804304   25.61662485704995    6.07867629910347
C        -4.79248941467749   19.02927113036749    6.09407685646808
C        -5.47771126802455   19.04335122809441    4.87516856973255
C        -6.85383518384376   18.89477482156295    4.88471060768774
H        -7.39111224035592   18.90163654423888    3.94663203637445
C        -7.55706705336552   18.72546677130979    6.07089430100528
C        -6.85263525630954   18.69327927805179    7.26589883562658
H        -7.38622728074900   18.54446485439868    8.19422608601881
C        -5.47482695490057   18.83793153284021    7.29777210416951
C        -4.70453985489984   19.18820381238142    3.60052013116353
H        -3.85076626413997   18.50442727829382    3.61340982354592
H        -4.31657918119612   20.20247059209342    3.49570607889099
H        -5.32851488701401   18.96319516232393    2.73969713142497
C        -9.04493919040796   18.54378078023501    6.04676409496671
H        -9.47452093805149   18.71109027557703    7.03134930709208
H        -9.29097833890653   17.52818638563088    5.73560405184014
H        -9.50658933104166   19.22952263356662    5.33887504918029
C        -4.70092690241758   18.78309204313580    8.57828950311288
H        -3.83116601708895   18.13171911897685    8.44897861100615
H        -5.31539551378687   18.40201337800823    9.38949619627101
H        -4.33668518546484   19.77495542233132    8.85014021141127

