89
CSD_code = JOPCOG | q = 0 | S = 0 | Stoichiometry = C44H38Cl2NiO2P2 | MND = 4
Ni        3.87764409761739   -0.11123431448649    1.41271431561185
Cl        2.26283013644094    0.30596272730120    0.14441458785705
Cl        5.14602700784334   -1.16812395939169    0.12050058143375
C         7.86070091401164    5.80677822713878    3.76979678339727
C         8.49017236566699    4.68256904746863    3.17673533001881
C         8.20504290091404    3.34921015537085    3.56504572469894
C         8.66901397882019    2.28479023751418    2.82033245420111
C         9.54622020512024    2.51307649165337    1.74750485686488
C         9.93146581856621    3.77945988744816    1.42014554971476
C         9.38549299587910    4.89208852349847    2.09261261963558
C         9.69051653423724    6.20622995113748    1.68448816806996
C         9.10335873298303    7.27673473835375    2.29594240840585
C         8.18263737152520    7.07094084288626    3.32966304289559
O         7.40238095282874    3.10039022093011    4.66949335446114
C         8.12748280842074    3.02739411282084    5.87569072522425
C         8.08810832397743    0.92155055855934    3.05119208209129
C         6.80300034671497    0.87812156176009    2.21265040691155
P         5.51140425736664   -0.31437039053388    2.74240554518624
C         6.36065709633276   -1.86313683678384    3.13083953176790
C         5.90978861574077   -2.65562751326140    4.18244290151033
C         6.52138480112343   -3.86689230002447    4.44738393220700
C         7.57293016920316   -4.30064063683613    3.65630255656847
C         8.00260377014061   -3.52854329110059    2.58886798684267
C         7.39632224616231   -2.31574300861850    2.31885935060966
C         5.02092867206895    0.37612184341584    4.37487101437547
C         5.77988897903165    0.29181781311471    5.53533596788107
C         5.34673548883600    0.91625633735147    6.69147735594811
C         4.14366719214377    1.60417501779334    6.70775416113295
C         3.35350449043490    1.64424133989744    5.57413234181916
C         3.79079180609543    1.03910437809107    4.40432217793480
P         2.76595380705503    0.91506051824747    2.88981096063613
C         1.33801008980267   -0.03957931124697    3.48754285528713
C         1.45797633408253   -0.89960976573241    4.57526951803077
C         0.37601277145295   -1.65822471730532    4.98304618707278
C        -0.82800958735153   -1.57507318868106    4.30391045243858
C        -0.94394059433852   -0.74012225714887    3.20437364533023
C         0.13347901443213    0.02111584959606    2.79088991942383
C         2.02976527843899    2.57461318398357    2.59393609730230
C         3.06611368806741    3.67415338594416    2.34059664458281
C         3.64961016975881    4.31930671206598    3.57273112215393
C         4.97848248780521    4.70362220841790    3.61297649201084
C         5.54787875430309    5.28265006992918    4.78349668716595
C         6.89631301946865    5.72857084293410    4.89155738497653
C         7.35035994617417    6.24295845320048    6.08618104517067
C         6.53385230659003    6.33129682016754    7.21761752093679
C         5.22810994963578    5.94704917648439    7.13069756455448
C         4.70986182642077    5.43717852452283    5.92309881473715
C         3.34208875647086    5.11921446483317    5.82497780985988
C         2.82690659122584    4.59717794077980    4.67798377310803
O         5.77683517170006    4.48229435747038    2.50270091587439
C         5.67481379196807    5.46068888598744    1.48968460092236
H         9.91434037711114    1.66513670814560    1.18858440522351
H        10.62593661733872    3.95288432258679    0.61116122973723
H        10.38557359632829    6.34724996639683    0.86962515382000
H         9.33049301736659    8.28477689947500    1.98165584285720
H         7.69873393419965    7.92445294576001    3.78494503877402
H         7.38758004247045    2.92640601143006    6.66786987997905
H         8.71979508457475    3.93212307271619    6.04844963959273
H         8.80187979304576    2.16179001391218    5.88630280536503
H         8.77856632554399    0.13451559955767    2.74745153337226
H         7.84509574764883    0.79512387259669    4.10452022485415
H         6.30958646014385    1.85811283246589    2.26911551730060
H         7.02738151058175    0.68090578313885    1.16026878582149
H         5.07595713621086   -2.32279957939455    4.78654262507506
H         6.17193750866138   -4.47833565390744    5.26666184743747
H         8.04733916716153   -5.24851482346706    3.86332503553563
H         8.80687006353210   -3.87887960496878    1.95889961405020
H         7.69854643281195   -1.73075810502160    1.46331568831226
H         6.69608711384201   -0.28205774825377    5.54591027611503
H         5.94378730655914    0.85312002999478    7.58991285605302
H         3.80881950442980    2.08562648589859    7.61451918288754
H         2.38715384411029    2.12430670226494    5.60441658558630
H         2.39856918841761   -0.97591945097895    5.10343342482790
H         0.47549065046317   -2.32110963710280    5.83035777800135
H        -1.67058593687533   -2.17007415840869    4.62369132239196
H        -1.87534790165304   -0.68842533405361    2.66059350576545
H         0.05480554263246    0.63784498314597    1.90832502012635
H         1.35225587228821    2.80951984667116    3.41675895134841
H         1.43543780497859    2.44460691709821    1.68386469287361
H         2.58301232265776    4.45549775931857    1.74225034605370
H         3.87760291336394    3.25291525499471    1.73735236179325
H         8.37334821744801    6.58950776297352    6.14832676626718
H         6.93876958620956    6.72283911806808    8.13918398550508
H         4.56581925411026    6.03481842121004    7.97997640324382
H         2.70462794177837    5.30760084815645    6.67705999014943
H         1.76702091970551    4.40023676136511    4.61427374965684
H         6.37331634634721    5.15745779331065    0.71161484744255
H         5.95879386593262    6.45079960035330    1.86227199020824
H         4.66432617916075    5.51455386556427    1.07331326979626

