33
CSD_code = JOPDID | q = -1 | S = 0 | Stoichiometry = C10H10AuN2O2S8(1-) | MND = 4
Au        4.99691471973033   -2.29463637574417    8.59084366208710
S         6.06265888201587   -3.03219578398876   10.54898342425902
S         3.54950449550222   -4.13243861370127    8.60477783027043
S         3.41781654296421   -6.36507689447670   10.69250326142317
S         4.65624748429645   -7.53054191694161   13.17452992843235
C         4.11188204247790   -4.89090622733439   10.05739821232697
C         5.13843444187087   -4.47723588426575   10.83512283220250
N         5.38714443098235   -5.29045338495864   11.92228940330584
C         4.58029800600450   -6.36812060067471   12.00994982813937
C         6.43069399450688   -5.00428331543665   12.88103502149038
H         6.05721984546965   -5.24158653089827   13.88211291529714
H         6.63925664527181   -3.93579448199322   12.80587828056953
C         7.71181301635861   -5.81903592258662   12.61843103572725
H         7.74294605972070   -6.09601423155784   11.55316987201114
H         8.58789664515398   -5.20329407940727   12.83540104794931
O         7.82688601833049   -6.94832868063165   13.43665120192763
H         6.98715417425755   -7.43746708087658   13.40580648612736
S         6.54520107915569   -0.53718700366436    8.45715618717196
S         3.81911367579091   -1.48718829195960    6.73390180577818
S         4.56712866673781    0.89559561846907    4.96585089548516
S         6.46627638703877    3.19994497008892    4.56958480435843
C         4.84597420269535   -0.14828437958570    6.34172754613480
C         5.92774871374248    0.26661706869225    7.03892858324059
N         6.54860021194905    1.38032263108296    6.51236763180386
C         5.95986773538816    1.87841160015807    5.40257254326436
C         7.71699270987024    1.99964742542907    7.09356792072313
H         8.24870784069660    2.49731057408249    6.27898830864653
H         8.34163184485123    1.21508349548356    7.52844031500000
C         7.34912725796967    3.02366072275576    8.18294804110296
H         8.07266514217194    3.84244136989692    8.17200293595577
H         6.35636878908292    3.44070517724724    7.95242876342169
O         7.38683198589315    2.50288160551169    9.48176693568494
H         6.93769631206002    1.64524742179207    9.49328253867928

