59
CSD_code = JOPFAY | q = 0 | S = 0 | Stoichiometry = C28H22N6NiS2 | MND = 4
Ni        4.00903370920308    6.19551109687314    6.59592986220404
S         5.18797707026075    7.82508018466534    5.75372310088921
S         4.97899934878088    5.78096727225636    8.50569931397031
N         2.81351250219312    4.81113824194627    7.03072115244363
N         2.85853097941429    4.15619241656916    8.18881016461464
C         1.86914883879041    4.58926237448542    6.14770129949019
C         1.97751457060195    5.43324635860992    4.96726132951111
N         2.95693011995690    6.30268293595982    5.04079634977790
N         3.23504814490316    7.13270170165703    4.03743262509818
C         4.27887000105905    7.89404820444706    4.26471808830364
N         4.72746641124719    8.79846006624033    3.37462922096629
H         5.52209818191020    9.33449314765469    3.70289972483009
C         4.28725493010355    9.09541415105863    2.08975886061215
C         3.26114392514561    8.39690082310857    1.45822323098396
H         2.77981554747038    7.58346387340992    1.97410562302067
C         2.87795482403104    8.74976927166985    0.17778008292899
H         2.08235311533079    8.20060738803532   -0.30365248373525
C         3.50288208912465    9.79127587228353   -0.48761858965100
H         3.19670000295795   10.06141861327939   -1.48674068660098
C         4.52758201433169   10.48388933460581    0.13723744830000
H         5.02402732122054   11.29528245747276   -0.37381620098162
C         4.92029451032732   10.14073638214558    1.41562152117888
H         5.72100022132539   10.68103191541506    1.90092598625194
C         1.11255848118112    5.28823929428131    3.79258735822246
C         0.83435390387810    4.02144898425082    3.27951079382612
H         1.26198547321518    3.14756010109148    3.74766148211835
C         0.03461977242202    3.88623902628512    2.16118953052283
H        -0.17103458254368    2.90191890256600    1.76746115175869
C        -0.49934043683527    5.00634195222084    1.54458673019694
H        -1.12479056672031    4.89599616990292    0.67121309188862
C        -0.22718253725907    6.26707413076652    2.04957386883514
H        -0.64151249697145    7.14322951015332    1.57303647912519
C         0.57608948582255    6.41118999827121    3.16501757467964
H         0.77884586846772    7.39269109492158    3.56487008993250
C         0.78600240336879    3.62234844028337    6.35017190014333
C        -0.53320272811853    3.97751939686622    6.06921925892644
H        -0.75558626147415    4.96916912529719    5.70464213792290
C        -1.55519896648771    3.07209311419180    6.27982861418762
H        -2.57429622397692    3.35731812191742    6.06467746148825
C        -1.27703859093420    1.80528846067267    6.76745300285431
H        -2.07896007469101    1.10062892061277    6.93032782843984
C         0.03108844896368    1.44610896298751    7.04726339618717
H         0.25358807917177    0.45973409325172    7.42668465604464
C         1.05867870843420    2.34755949955117    6.84351355456981
H         2.07877148368358    2.06352796993955    7.05083269594157
C         3.84333882923332    4.53818363794527    8.96681465003239
N         4.06554380026740    3.99339666409789   10.17737375023260
H         4.88243051795332    4.36375594876996   10.64851467067460
C         3.36266146440132    3.01135200743299   10.86643471350568
C         3.89024123793419    2.57049508053023   12.08094834281497
H         4.81316077909266    2.99713760502975   12.44803127936061
C         3.23977505445584    1.59439422617803   12.80934225194922
H         3.65889198772381    1.25963463409314   13.74649477973181
C         2.05599819389672    1.04672414028698   12.34155041430915
H         1.54964227684398    0.28281762205005   12.91165019920979
C         1.52708104346850    1.48899379974541   11.14044353602949
H         0.60147107718702    1.07281343337479   10.77115315368099
C         2.16897150603624    2.46495638654112   10.40138321598697
H         1.75551520922264    2.81324545979365    9.47019536026355

