31
CSD_code = JOPGAY | q = 0 | S = 0 | Stoichiometry = C10H10N2NiS8 | MND = 4
C         0.94392280262529    1.79991168416730    5.66281116536863
C         0.69072105871371    1.91510235743783    7.02269456697907
C        -0.95084469770740    3.31662537089491    6.24907779463283
C        -0.75524611198367    3.02041308893688    8.68492539904057
H        -0.61633808961628    2.10436293783838    9.26389115887605
H        -1.81269929035754    3.29286145691762    8.66764384016675
C         0.07643271846914    4.15432004052346    9.27116570157063
H         1.13143403302588    3.89126366831272    9.27303991765801
H        -0.23734186142246    4.34304855631394   10.29309080894439
H        -0.06351058405916    5.06234433840007    8.68973352601339
N        -0.35549951091060    2.73717135744937    7.32207338185444
S         2.18445528393005    0.82142832958749    5.05509656140640
S        -0.17267930486316    2.77673765106506    4.75101519910813
S        -2.20839056192442    4.35999902132958    6.30520166207842
S         1.62715986011132    1.07761755924989    8.16993358721898
Ni        3.03915551129346    0.00004010920132    6.88764648870308
C         5.13433706936658   -1.79991192708471    8.11247125336532
C         5.38753481183827   -1.91510281576199    6.75258811832812
C         7.02909363305084   -3.31663842450015    7.52619742148419
C         6.83350421284990   -3.02040675134921    5.09035270401647
H         6.69458237093694   -2.10435655939784    4.51138895542335
H         7.89096373749737   -3.29283486902142    5.10763353906716
C         6.00184989188656   -4.15432764942573    4.50410636267691
H         4.94684183490077   -3.89129922041565    4.50224452994629
H         6.31562060720878   -4.34303517724405    3.48217577792410
H         6.14182174576778   -5.06235560142952    5.08552555147567
N         6.43375131853014   -2.73717606282977    6.45320436450485
S         3.89381181867528   -0.82141752128146    8.72018664608852
S         6.25093501690025   -2.77674670781475    9.02426278157749
S         8.28662919139463   -4.36002440675946    7.47006697154914
S         4.45109148387175   -1.07761383331012    5.60535426295265

