80
CSD_code = JOPHIH | q = 0 | S = 0 | Stoichiometry = C29H44O4P2Pd | MND = 4
Pd        7.90575477017129    9.07982706674228   10.96995885163712
P         6.07965173864287    8.84612225796805   12.31258617345251
P         7.49348702174503   10.96736780456963    9.82910739748879
C         6.59775804903764    9.42031856072722   13.96995128576556
C         7.21466187036483   10.67201532600531   14.13474764296283
C         7.54963786173649   11.08267463662275   15.42039732995867
H         8.02818444475080   12.04257607087645   15.55674741949608
C         7.31346552040624   10.28821144125715   16.52665354934186
H         7.58787263882323   10.63524722111648   17.51177524247160
C         6.75227870782497    9.03657956663735   16.35576031325414
H         6.59107261750470    8.38780535743797   17.20419659964268
C         6.39947020189339    8.61364087125820   15.08772840040788
H         5.98048392522455    7.62760205442650   14.97205035066261
C         7.64804109437794   11.53715778817375   12.98037664323093
H         8.29101531575854   12.32208629212352   13.39032278606268
H         8.27823815457504   10.91146362300176   12.33078220937500
C         6.45770246945654   12.14676240772615   10.79135160781300
C         5.48306690301681   12.91652967704630   10.15773549489335
H         5.39208281369819   12.89395565200255    9.08339955997145
C         4.61521370195210   13.72106183723354   10.87288632328305
H         3.87006417702290   14.30386194642915   10.35202508397040
C         4.70541837456084   13.77237649054649   12.25271670466483
H         4.02787034735270   14.39064793824623   12.82218991739436
C         5.68337477315707   13.03711937622262   12.89453402024938
H         5.77618603571343   13.09164262738553   13.97014823034746
C         6.56525374421727   12.22218996690613   12.19085055659291
C        10.81895207436947    7.27205876549042    8.64934549432387
H        11.50590472552139    8.05414528875717    8.33795644629225
H        10.55546856002359    6.63316386847050    7.81181234258544
H        11.30193476357761    6.67343287765969    9.41857632773292
O         8.45023755973260    7.38973636090931    9.02155225838374
C         9.55985141995144    7.88997834029901    9.24365504812010
O         9.72333720113378    8.94395107350440    9.92636127892567
C        10.39704523558476    7.10884231167624   13.70403918266376
H        10.34431345372924    6.09483781933140   13.31834522343770
H        10.00505894985261    7.12891629229935   14.71933758123878
H        11.42481335030717    7.45855548323617   13.72105930093116
O         9.75773018861297    9.26223566274398   12.86683032296930
C         9.55233497080589    8.04659044128315   12.84810857074614
O         8.62598588079077    7.49936201502934   12.17492752842951
C         7.54433874177274   10.01817736838113    7.20606254192512
H         6.98985627373739    9.78713046390376    6.29731853405864
H         7.89296976546881    9.07927331815604    7.63434896262106
H         8.40249104857653   10.62664896968167    6.92981520857491
C         5.40560954105812    9.86064771924384    8.46860198219205
H         4.88155405179441    9.63024460511146    7.54240430886021
H         4.71461499259911   10.36047465200443    9.14475243019244
H         5.74448455240673    8.92234372527189    8.92090495122454
C         8.66779749561443   13.30033233041215    8.75313200709388
H         8.10480612143244   13.18087359875211    7.83019292369724
H         9.58508281440723   13.83831463235647    8.51904952370477
H         8.08336489247660   13.90946539010901    9.44115384714542
C         9.92224898640461   12.12926111279943   10.59822975611785
H        10.88145257275454   12.53408984132924   10.27844417705764
H        10.10874256993712   11.16633703093228   11.07936516828212
H         9.48516991145331   12.82280691491100   11.31373926682693
C         6.62798162036145   10.73019299717828    8.19676534712931
H         6.32544738650386   11.69528448732259    7.77597547341911
C         9.01209224663668   11.95452034505373    9.38531429470465
H         9.54282134380135   11.32433770048316    8.66257139195435
C         4.49403252067060    6.49696760480929   13.12840675689660
H         3.67419760685380    6.42829416922637   12.41872197260203
H         4.17701650817293    7.12188493183960   13.95903832832837
H         4.67360252574689    5.49332251179154   13.51292631550208
C         5.88794315751583    6.39625125096993   11.04245501748184
H         6.79565454298378    6.74776552752406   10.53635504944266
H         5.02187696446215    6.63645459614145   10.42750924735001
H         5.95130624196521    5.31204993016470   11.12108012205011
C         3.41604225300505    9.00125646347403   11.25611398511916
H         3.91252197944856    8.51626487250991   10.42115607217609
H         2.69537710760319    9.71331729059134   10.85506129007448
H         2.86181252311266    8.25705412665046   11.81882591222291
C         3.76177645980686   10.08306557969735   13.48807031050812
H         2.82423628023462   10.60499954400933   13.29965534167562
H         4.39790247450195   10.73487198536048   14.08075948826599
H         3.54117534688771    9.19447932197741   14.07336196746724
C         4.41233951277996    9.73331158434659   12.15295157451392
H         4.66920916969198   10.67475290091579   11.65807809156372
C         5.76622070751622    7.00420661666679   12.44407275354359
H         6.64095358086236    6.66792152855472   13.01467170526103

