68
CSD_code = JOPHED | q = 0 | S = 0 | Stoichiometry = C25H38Cl2P2Pd | MND = 4
Pd        3.68293031340937    1.36534449284666   12.91279990977355
Cl        5.69759044059107    0.29219845616309   12.91851478143339
Cl        2.62929111895571   -0.66829108402812   13.19060514471688
P         4.82577920368657    3.25027868479179   13.39374198853091
P         1.50476824049893    2.08172874234753   12.64957068677315
C         0.62743121534428    1.59205935871900   14.17302706271440
C         1.19868417441633    1.84488290267459   15.42937243324037
C         2.58841397949032    2.40912597374088   15.59756314775752
H         3.28975685121456    1.76450006561374   15.03065430234011
H         2.85564974989686    2.32355888716299   16.65591057093642
C        -1.29835120289147    0.60517430799594   15.24880563849329
H        -2.25452423020370    0.10947501462393   15.17114307562782
C        -0.75365312654355    0.88286687057475   16.48908480297439
H        -1.28199456346725    0.61385403687387   17.39154372523871
C         0.48763420096082    1.48652142737071   16.56874013261555
H         0.92339315794231    1.67045423933951   17.54147999859660
C        -0.60998234861834    0.95884537730545   14.10389059094576
H        -1.03573786998366    0.71752983540657   13.14354148380725
C         1.86997320126973    4.75919695023094   15.83296182679335
H         1.11899637060662    4.36951368705648   16.50588914033744
C         2.73798644285697    3.86333896172409   15.21400289384963
C         3.71985758779346    4.36756520904234   14.34323943337279
C         1.94768623717847    6.12060030405694   15.61062706174190
H         1.25513928905271    6.78969329992823   16.09860063268859
C         2.92746674016715    6.61839615652393   14.76938216202844
H         3.01220833192391    7.68095977095015   14.59648317844190
C         3.80029673633348    5.74598851836369   14.14726307879652
H         4.55886108067978    6.14763462517644   13.49309563326620
C         0.82461986316189    1.03409909333385   11.25238179138265
H         0.72827398302096    0.05539961293013   11.73946783327656
C         0.86991916160949    3.85961439955302   12.45425560923356
H         1.63874515026242    4.45668871671079   12.95581598289896
C        -0.50676171453350    1.40441751503195   10.59737290123305
H        -0.35965805464262    2.10535807560853    9.78011038627509
H        -1.21524329814847    1.83630209842857   11.29906230323521
H        -0.95650942523697    0.50503986769436   10.17812327563075
C         1.92020106428565    0.90447123436745   10.18570865882450
H         1.65564495698482    0.11731642103501    9.48158173406190
H         2.88732157384245    0.63146802031157   10.64490793614643
H         2.04288085417923    1.83171952417820    9.62518669563323
C        -0.45160723088823    4.12734955117467   13.16874141078421
H        -0.73424768269472    5.16782510460495   13.01225425032869
H        -0.36604487906222    3.95809124975920   14.23893970530700
H        -1.25107418562629    3.49835404416826   12.78558014523813
C         0.78721249551898    4.33537566993503   11.00430753486498
H         1.56638762068170    3.89509255954476   10.38900849514933
H         0.90082148309301    5.41830210097176   10.96793478030354
H        -0.17922492581811    4.09338405381330   10.57400703834062
C         5.45870035442874    4.18173559987190   11.91690617612233
H         5.88794104639281    5.14709253056215   12.20336760882308
C         6.31660072179431    3.09633706150033   14.50063124534901
H         7.03261459355689    2.50388331077738   13.92059726033772
C         5.96080313150771    2.30399816756162   15.75557188060227
H         5.52044294544546    1.34263706597458   15.48241960542638
H         5.27041566274406    2.86258255887731   16.38607232319552
H         6.86253806055133    2.10356508871912   16.33148907514890
C         6.91778268183207    4.45015196797054   14.86476739743123
H         7.26686851835297    4.98778173347305   13.98651880209163
H         7.77142503158320    4.29860745073013   15.52326425800724
H         6.19141800834664    5.06880259232394   15.39005330906023
C         6.52398570622920    3.31878619159102   11.24379147839794
H         6.76232358167434    3.71784339036178   10.25904922191986
H         6.15320941367881    2.29777470463884   11.12393729169517
H         7.44127857493051    3.28245875597516   11.82622218156762
C         4.28413418276676    4.38525207154768   10.96856957896291
H         4.61344325322188    4.83601903632017   10.03376256083862
H         3.52480866731381    5.02416719152139   11.41470232550276
H         3.84275773110529    3.40655954396881   10.74852343352801

