71
CSD_code = JOPHON | q = 0 | S = 0 | Stoichiometry = C26H40Cl2P2Pd | MND = 4
Pd        4.49860173740821   10.36170868572416   17.69876842913330
P         3.77627163518601   10.16225798317749   19.83750508714239
Cl        5.48878913248824    8.28316020485480   17.69987571078182
C         1.93723270156018    8.59263618606296   17.73774586657042
H         1.36275751229576    7.66518292136508   17.66663743337938
H         2.95163561137061    8.33245531993257   18.05737227520315
C         2.00341375232900    9.25667136939565   16.33902362220899
H         0.98264719931998    9.35936895857055   15.95802184268868
H         2.41368468501040   10.27000936779641   16.45163110153555
P         4.87457269725844   10.35983334863437   15.45095677538992
Cl        3.55704645035733   12.46115264186202   17.76094675182082
C        -0.81648780675058   10.51741457446398   19.45167594837708
H        -1.88906429098929   10.60140030372982   19.35809003657720
C        -0.11397284706974    9.65403601706979   18.63278303481695
H        -0.64844075703102    9.06590018392788   17.89958603919446
C         1.26748498492561    9.51887049495950   18.72215800131737
C         1.95459650642517   10.27496890500898   19.68667089086696
C        -0.13381937552194   11.27815727293717   20.38352988040243
H        -0.66558145649388   11.96795529382745   21.02202072814258
C         1.23785582778868   11.15329431046967   20.49578007081376
H         1.75821293760950   11.76073088602343   21.21875646851260
C         2.87259086549049    6.48845866837669   13.92469206500625
H         2.41571761298657    5.56789625483679   13.59267895763400
C         2.24677561280814    7.26728173244657   14.87941494747576
H         1.29049133661854    6.95359103660684   15.27449677424237
C         2.80570621550728    8.45436529226115   15.34162992475704
C         4.04771516863419    8.85337220562011   14.81816262748826
C         4.07643657999325    6.90541432082560   13.38562687190843
H         4.56705307274119    6.31921633674502   12.62267530432190
C         4.65113371587967    8.08040025807411   13.83045808606825
H         5.58332109959752    8.40822536002001   13.39977271252530
C         4.38688264919173   11.61504693504311   20.83448109727269
H         3.79744232138319   12.45860526026753   20.45142307765582
C         3.98311499309182    8.56979491358741   20.79483653278044
H         3.71222904421283    7.80318401245160   20.05556795123796
C         4.26732959946183   11.56775431247423   22.35469398904483
H         4.53899776863517   12.54226561091306   22.76049722029037
H         4.94623122501306   10.83325715518307   22.78089750716151
H         3.25660075138108   11.33803069056552   22.68268952336747
C         5.44255898633353    8.33649186248011   21.17145676501703
H         5.57129874448239    7.31720159060139   21.53214372072068
H         5.76951300929578    9.01442696185917   21.95602114252112
H         6.07821252828665    8.46677561177930   20.29649040312038
C         3.04630888504817    8.41737255455926   21.98897308733481
H         3.06404095643186    7.38206712138636   22.32696130374869
H         2.02164253876690    8.66931705859663   21.72037007872094
H         3.35279693473797    9.04323758093560   22.82142322804885
C         6.73420018532356   10.43241603995058   15.18643363474231
H         6.91868485389376   10.98677450921086   14.25738036291861
C         4.33401799891192   11.65611348361091   14.21460335542393
H         4.95020530951432   12.53590816219193   14.44248358582365
C         7.51563002399627    9.12203585099794   15.15697819291385
H         8.56629856640900    9.32955575397507   15.35724676111306
H         7.45693260076956    8.62990422017942   14.19013186763648
H         7.15372779830074    8.43618403991363   15.91823899350346
C         7.20831250914701   11.29820911668490   16.36435637808561
H         8.25212613961250   11.58284945576435   16.23706937939938
H         7.11787228488816   10.72766784911047   17.30143686922471
H         6.60917349324012   12.21248214217950   16.44381439433434
C         4.58448362900771   11.21144492862959   12.77567725089894
H         4.36503114280618   12.03609483469222   12.09910060861711
H         3.93307520863613   10.37839479934689   12.51771713659515
H         5.61477251989864   10.90599388413961   12.60668298043266
C         2.86674488464675   12.03372191528336   14.38640186747604
H         2.61228975674724   12.83942568255604   13.69924607600451
H         2.67243174765287   12.38186096470145   15.39867214421739
H         2.22311395396568   11.18353769915540   14.16481968382374
C         5.84577998945513   11.83553429093912   20.41420235442821
H         6.22810412562837   12.75717148521881   20.85066978381309
H         5.91836694003455   11.92108506984852   19.32006556325186
H         6.47734528382147   11.01021789313222   20.74149988107081

