27
CSD_code = JOPHII | q = 0 | S = 0 | Stoichiometry = C8H8N2NiO6S2 | MND = 6
Ni        1.37840602882370    9.11946132568124    3.21733983527308
S         1.28438020330772   12.95487557961256    1.35810788428096
O         2.74966461486657   10.40748100019616    4.79129355940215
O         2.63671724450012    9.26852242809259    1.82854058945860
O         3.38045842438496   10.70420319797882    0.29139829179124
N         0.78786135193011   10.83945949679152    2.67367990349869
C         2.65919170285256   10.38228878665747    1.20908775438926
C         1.59451186927509   11.32006806085882    1.75664488143612
C        -0.11287803317444   11.74911105998424    3.10962156314188
H        -0.82290110357281   11.46945143257693    3.86776817802858
C         0.00259612277608   12.96067953319253    2.50474075831332
H        -0.58354555642516   13.84204638897302    2.66683452456189
H         2.19946116507197   10.37442547292674    5.58150075943592
H         3.55195828009593    9.90658317712381    4.96378130781272
S         1.47234257243352    5.28405528371622    5.07666397709035
O         0.00721637754529    7.83140353961667    1.64335450503860
O         0.12028702342711    8.97058379101459    4.60638131623474
O        -0.62368893728452    7.53481433666731    6.14339534978225
N         1.96896713951481    7.39952920186683    3.76117433648771
C         0.09768113734274    7.85675411564237    5.22577507044454
C         1.16229646566932    6.91890551949411    4.67818437891535
C         2.86968426935723    6.48987069522536    3.32522361018360
H         3.57971607191637    6.76953599350274    2.56708962686586
C         2.75424000986403    5.27832273078589    3.93013945843344
H         3.34040941715495    4.39697089819626    3.76807875495846
H         0.55748529414338    7.86497277176738    0.85299144284938
H        -0.79521915579697    8.33212418185862    1.47110838189129

