96
CSD_code = JOPKIL | q = 1 | S = 0 | Stoichiometry = C49H39N2O3P2Ru(1+) | MND = 6
Ru        9.90736156344084   10.26006605158083   11.09316409085019
P        12.19974080347544   10.30714687947452   11.20009447905530
P         7.64491104809692   10.02549895092478   11.64339399353956
O        10.09578609436434    9.36060474218912   12.99291128569328
O         9.79292501397425   10.33943107722098    7.96838151766061
N         9.99125957995827   11.86400434484198   12.19738785373816
N         9.71717172876444   11.77000474389429    9.67045161754960
C        12.87184895032121   10.43321566504505   12.88380693625093
C         7.21799949723874   10.93661101879627   13.15363546696393
C         9.83010515904686   13.07461251591099   11.64393265409867
C         9.68534644739144   13.01989112139016   10.19222538721151
C        12.83138972735136   11.76698823268460   10.33481852310558
C         6.41875009163816   10.57368410061732   10.41241835985102
C         9.86613633041196    8.74387323062031   10.02889790338527
C        10.19306358980747   11.71798188174661   13.50267232838024
C         7.07615586871233    8.33510921043291   11.98745311449358
C         6.68841114321820   10.21432850094432    9.09423656606540
H         7.59518341375594    9.65975924090355    8.88276426841590
C        10.54372251923592   10.29203880327750   13.89029455705161
H        10.12212794839655   10.05828468897174   14.88470264888892
C        12.06756680767917   10.36095990288182   14.02033617513820
C        12.66597550956531   10.40672433924204   15.27259300695518
H        12.04846656160541   10.34418349776707   16.15709312666731
C         7.03393607109696   12.31765740412620   13.09462217271206
H         7.06886279313399   12.82402900115611   12.13655437807176
C        13.11424661262411    8.86237870741219   10.60702771722124
C         5.70966091042210    8.06942939451261   12.05447299972912
H         4.99422885243110    8.86528573741904   11.90054112747250
C        10.20449031373386   12.81406525189065   14.35143622624918
H        10.36362994714674   12.67947127453429   15.40881436988541
C         7.18747133418495   10.28914162794106   14.38427894854621
H         7.34868703242992    9.22116207147549   14.42671226963845
C        13.10711763013399   12.95568542605452   11.00291745909581
H        13.11100289569973   12.97793569938156   12.08568274766665
C         6.95973211889026   11.01540715053936   15.54000869196579
H         6.93104184348212   10.51030370350602   16.49390154439256
C         9.84163197886716   14.21808744308822   12.43975959060705
H         9.71638286830088   15.19472617825290   12.00300030878618
C        14.25282705123685    8.91082194694682    9.81215330621979
H        14.64099962029766    9.85891875443555    9.46621933691590
C         5.80387261137629   10.54469206017142    8.08524388723749
H         6.01172165745909   10.25692238703992    7.06508816763835
C         9.67641296823579   11.62036336782662    8.34046501275599
C         6.18658708590670    5.76169032631392   12.50539622571493
H         5.83905183512343    4.75911174446797   12.70341697473956
C         4.36094195759358   11.58316391975479    9.69656964559493
H         3.44805200171822   12.10893516344425    9.93307261222885
C        10.01451353407761   14.07661495974125   13.80658596715891
H        10.01581470026135   14.94669954024996   14.44412985684297
C         7.99414995757485    7.30968159315825   12.18793441369697
H         9.05214195148595    7.53439740731608   12.16780204548690
C         9.47921405631156   13.97713239405097    8.01020043502845
H         9.37609737949396   14.83151862844007    7.36093933435373
C         5.27077575398236    6.78464414271676   12.31362988179098
H         4.21194063721501    6.57998502850909   12.36415365814204
C         5.24136374300424   11.25029374925404   10.71181398809026
H         5.00594713944122   11.51328283937866   11.73360129101259
C         7.54499861837517    6.02629535911048   12.44661411359767
H         8.25735484247764    5.23031981508227   12.60290875733836
C         9.56116391071744   14.14219724173691    9.38046470908127
H         9.53334707378552   15.12631579121055    9.81563002348160
C         4.64124542970164   11.23750365266687    8.38518461501903
H         3.94988506160477   11.49975279122837    7.59903860307803
C        12.80768884510463   11.74714669917041    8.94034097451797
H        12.56305436572809   10.82092377414771    8.43435485534926
C         9.75610333146605    9.99831935994391    6.59297896698274
H         8.80637998758173   10.28891766975507    6.13735808679393
H         9.85700958338840    8.91495767051657    6.56397439735465
H        10.58517711329265   10.45620268063921    6.04758545782902
O         9.87144062948482    7.80086289392059    9.38048912368540
C         9.54529465833406   12.70188261269333    7.47455770940306
H         9.50183401056340   12.55428597386227    6.40926103650120
C        12.62906609344589    7.63884897410093   11.06726185826797
H        11.75028038867412    7.63080473205802   11.70444712477285
C        14.25629543366514   10.54012210357021   13.01383748791437
H        14.86751921680910   10.58778046166481   12.12225515428364
C        13.09400047066770   12.89417167487031    8.22614388653253
H        13.09152242001807   12.87533621947903    7.14626604552861
C         6.80283497439752   13.03614223248123   14.25235991709262
H         6.65105396719027   14.10433790754691   14.20128670804708
C         6.76612129609740   12.38575377827201   15.47615402785272
H         6.58497625912720   12.94882233633939   16.37904159538916
C        13.38685347074164   14.10326883385380   10.28115870080853
H        13.60865971653931   15.02284984764244   10.80170153495160
C        14.03932172123714   10.51502579367435   15.39651727722127
H        14.48905485522761   10.53953716126064   16.37723883069997
C        14.88759421616164    7.73081539138207    9.46276079626653
H        15.76992511805689    7.76320403622251    8.84124721678462
C        14.83777823445648   10.58779485052591   14.26491189177958
H        15.90931066491267   10.67302265597664   14.36027630618108
C        13.38189241700215   14.07399500123101    8.89662705805994
H        13.60220785556086   14.97050388291198    8.33778874944434
C        14.39872013773752    6.51434169929246    9.90951610207044
H        14.89975111746520    5.59987005131876    9.63095778221344
C        13.27181869721508    6.46775478520504   10.71704921504427
H        12.89820955416233    5.51877283758290   11.07034084911893

