83
CSD_code = JOPKAC | q = 0 | S = 0 | Stoichiometry = C32H44BrNO2P2Pd | MND = 4
Pd        3.09902209883743    3.79451112146947    3.73957800349587
C         4.48495536314101    2.70591792334895    6.36852666167074
H         3.66483933371707    3.42174514633233    6.25851424074929
H         4.52418155792415    2.40664253219521    7.41877496102482
P         4.41135959806561    5.39123341438657    4.68881330799139
Br        1.21938671387864    4.22973732655716    5.26082215079017
C         4.18364453038791    1.46257225872169    5.49730719658661
H         4.29577329621721    1.73596764380836    4.44049334242176
H         4.92162921603597    0.68723246402103    5.72387003009247
C         4.46570803411545    3.58701262340450    2.33226858042647
O         8.14695840374040    3.07610770623962   -0.87307434484296
C         3.69840591014821   -0.30195347859382    2.62366396515746
H         3.89173540384418   -1.16218855547171    1.98422736274765
H         3.51262285320286   -0.66503730189045    3.63291224024760
H         4.59315944953860    0.31831735351029    2.62388857431633
C         2.80540175613461    0.96331997576459    0.66899034683336
H         2.95630355222365    0.11380074571262    0.00454387442229
H         3.71400808537783    1.56177178643656    0.66464148989608
H         1.99869283625588    1.56954086507539    0.26446905731271
C        -0.51539805045888    1.29482976548802    1.81573478961870
H        -0.07724972377717    1.12152167285801    0.83568447912226
H        -1.52948898046367    1.66344361347422    1.66507428993630
H        -0.58313532038262    0.33997576643068    2.33234883621441
C         0.38707555876645    3.63313323842007    1.79613418057199
H         0.88713019958169    3.45642915466669    0.84375382180195
H         0.94678585671610    4.39716738173751    2.35625219149422
H        -0.60361306483766    4.03592105518138    1.59081864628383
C         0.26961001241708    2.33779581168289    2.60777855244657
H        -0.28183654550314    2.57310433257631    3.52810934109963
C         2.50181773985415    0.47234052344273    2.08083374884358
H         1.63759855009287   -0.20390039866171    2.06071716446441
C         3.59072118560574    7.11842707587681    2.72618671999699
H         3.80186001027987    7.46182009020821    1.71511127771281
H         3.10859455793138    7.92964319247612    3.26608580192873
H         2.87483621441027    6.28648409877565    2.66769468208207
C         5.68011466799016    7.91078533579795    3.86754992639047
H         5.99105975692607    8.46238894334810    2.98041976137476
H         6.57199205769278    7.65192928807389    4.43215477147854
H         5.07349870740290    8.57840303687888    4.47350540399879
C         5.11833809430058    6.76465059648504    7.08387854011428
H         5.61751332977864    7.58387170064796    6.57524507360812
H         5.84674691114441    5.97764904873078    7.27052199095279
H         4.76337249601473    7.13331098731107    8.04499759316732
C         2.87727388430258    7.32801630117220    6.06010128737560
H         3.30809515314612    8.21848055013461    5.61063485110389
H         2.44254328293845    7.61153696647263    7.01658547222972
H         2.07077429733881    6.95902108756554    5.42957426770461
C         3.92709252711522    6.24329834378382    6.28523677888108
H         3.44620505044672    5.45196126371499    6.87585524121913
C         4.88450328430338    6.68394181368068    3.42936043222566
H         5.48670726421286    6.11029664575740    2.70820294394422
C         0.52898350555590    0.42722704217232    5.10693705445854
H        -0.28466184442074    0.48875259251493    4.40269840083862
C         0.30767335233882   -0.19708483480472    6.31957732836072
H        -0.66219721105412   -0.61879092918248    6.53638905129297
C         1.32773020548339   -0.27084129580584    7.25032176688097
H         1.16488345688507   -0.75190726568060    8.20293164202887
C         2.56026260775682    0.27668179543295    6.95124896798980
H         3.36148631766080    0.21173252155829    7.67396938326993
C         2.80284407377956    0.90933083581475    5.73763605889022
C         1.76474619732944    0.98859120912573    4.79540933961496
C         7.18013230641942    4.88388665423865    4.76230115325431
H         7.28192189499809    5.74621056412096    4.12407722926799
C         8.31779467306720    4.18266476658624    5.11545367277324
H         9.28353942367410    4.51425216084727    4.76490945014433
C         8.21105691412357    3.06022710726761    5.91710632069029
H         9.09398722973900    2.51277308969252    6.21076747051477
C         6.96139699825162    2.63323860198862    6.32537594281071
H         6.87600744443646    1.74518292397943    6.93599608130042
C         5.80292603171339    3.31335570278432    5.96524152278767
C         5.91836033553327    4.48344587758771    5.19503125465174
N         7.05741674203726    3.60620563497564   -0.99569214774902
C         5.72403443111669    2.98501656884680    2.39981643203950
H         6.06703788488289    2.51290163298516    3.31251173251635
O         6.67413023616884    4.14834331227588   -2.01655714136885
C         6.57511286994822    2.98535565619956    1.31317664930429
H         7.55015349173341    2.52486496125747    1.36672780334990
C         6.17595256771840    3.59332090446940    0.12686566330225
C         4.92004963722777    4.18778013674780    0.02887827623981
H         4.62694269719830    4.64575354811635   -0.90400650688623
C         4.08080472846358    4.17509025391218    1.12419581091414
H         3.10011500583856    4.63342673239332    1.01943824508986
P         1.98494883630631    1.87938170238739    3.20369219075133

