87
CSD_code = JOPQEK | q = 0 | S = 0 | Stoichiometry = C30H46Cl2N4O4Zr | MND = 6
Zr        4.03053844988734    1.50974308740377    3.38505165615237
Cl        4.41024207091154   -0.19664420243957    1.78863069129200
Cl        2.15194585331901    0.45238104825096    4.36080009712518
O         5.61847143475105    2.49155052387577    2.67543148907094
O         5.24525507902687    0.60767827567142    4.62862421045928
O         3.61841154815794    3.03261806765668    4.57582976262111
O         2.77981961809692    2.36393512699717    2.11894520766678
N         6.98202367479680    2.51931022163535    0.86532043628678
H         7.76264136678514    2.06674435580443    0.41659671764969
C         6.65619194873492    2.04164016403804    2.08111169201919
C         6.22538636052697    3.45696358770327    0.03779140696053
C         7.07460676877798    3.73395934041239   -1.20423332533626
H         8.02929441369584    4.17493743727918   -0.92550781027781
H         6.55591409963805    4.42738805599799   -1.86028515770460
H         7.25882816421648    2.81463718386619   -1.75623218500599
C         4.89595077438320    2.81379423809002   -0.36630669007060
H         5.07313353396627    1.91371861437734   -0.95186964810910
H         4.30546669514765    3.51203158779720   -0.95446190897485
H         4.33322514224910    2.53266484247172    0.52434677753898
C         5.99127176952212    4.75845096586292    0.80813013645495
H         5.38114268865060    4.57350351925437    1.68890716477191
H         5.47535517961188    5.47867626115424    0.17898268781895
H         6.94184346469751    5.18478550676010    1.12206411417296
N         6.10543901704496   -1.47781586907888    4.87390013226640
H         6.82581138491052   -2.10604980290675    4.55057274505746
C         6.17071323440957   -0.23512445835807    4.37352571971829
C         5.00597274543466   -2.13064215613564    5.58972895382488
C         3.93474076318749   -2.54637937997686    4.57879039275288
H         3.55231787871252   -1.67279406065383    4.04918490249701
H         3.10335130009205   -3.02254444692898    5.09040332491698
H         4.34743982248580   -3.23872837907657    3.84785452056383
C         5.61358911070998   -3.36786372997668    6.25802430599578
H         6.05163649015879   -4.03204774366598    5.51539928401780
H         4.84227143783992   -3.91751169754069    6.78971363041873
H         6.38458578602349   -3.07909632294907    6.96931920305096
C         4.42005923537021   -1.20521197413844    6.65751154426286
H         5.21752160457041   -0.74227660094697    7.23594776052476
H         3.79090165814368   -1.78367506942056    7.32899192717057
H         3.80662395077898   -0.42826952931010    6.20343083108217
N         4.96667859589526    4.72735915032085    5.24411580335466
H         5.29739231709417    5.65349743377392    5.02118450016923
C         4.05091737533227    4.21454641111716    4.39661606103771
C         5.71900304906701    4.04817111281775    6.30053714441469
C         6.89613660284565    3.29800609101066    5.66620266683287
H         6.52225184561826    2.56434440818081    4.95137981905906
H         7.47051420761177    2.78016022500892    6.43003253635760
H         7.55547560771489    3.98853570701416    5.14299316674110
C         6.23250232016973    5.14719380316345    7.23639633443599
H         6.86529560379048    5.85034246547827    6.69794334977807
H         6.81983091182146    4.70977017236746    8.03877429306185
H         5.39928992986942    5.69116769905519    7.67524588344487
C         4.83266595074276    3.07915195166154    7.08706627577152
H         3.90397556275376    3.56652442967105    7.37557495941068
H         5.35521663156072    2.76290806830906    7.98717117394685
H         4.59144909978526    2.19749385957427    6.49198232043698
N         1.00501854343802    3.39920206496393    1.19825985798706
H         0.49550121896026    4.26434054702110    1.11074904358227
C         2.13707247668256    3.44149204482286    1.91919056697174
C         0.35952028253022    2.20707849331138    0.63865822109766
C         1.34775374737800    1.41673585518573   -0.22392725598607
H         1.81918764741836    2.06900322713108   -0.95618323224085
H         0.81725714316843    0.62779300204322   -0.75017440716384
H         2.12127909709676    0.95569437737802    0.38910201252222
C        -0.79506399264757    2.71284047897708   -0.22910302688453
H        -1.50238086884194    3.28624153737970    0.36709804911159
H        -1.32521284015178    1.87207628954417   -0.66706231724808
H        -0.42276920779118    3.34101581178892   -1.03600511361788
C        -0.17506880608568    1.33309589956810    1.77495411243394
H         0.63933447030208    0.98925017626940    2.41137855322085
H        -0.67999428939580    0.46179289092568    1.36750133469755
H        -0.88005881538858    1.89172594261546    2.38715209281953
C         7.58080969543002    1.11327153842493    2.65453529037262
C         7.36721275174475    0.09996442671605    3.65889145086947
C         8.57718252367820   -0.60516087995269    3.78613038388025
H         8.77245238107871   -1.40561134986715    4.47799072805887
C         9.52164596016257   -0.04736905666627    2.93636874620108
H        10.54666671288635   -0.35654883621952    2.84544212147561
C         8.91508557735318    0.97299958585512    2.22237764931259
H         9.41721535270862    1.59740976773664    1.50401136547014
C         3.54007357177924    5.07517564003930    3.37776128298302
C         2.59916694335393    4.73532718415777    2.33455210360753
C         2.27970079384849    5.92967854856902    1.67164465449317
H         1.64528809430075    6.02380654591713    0.80768128043441
C         2.98412805410916    6.97668035184679    2.25573555950158
H         2.94359903159168    8.00646435613596    1.95134477786373
C         3.74296402350176    6.46843908298815    3.29593338434354
H         4.35540159505082    7.06508487785050    3.94932774084565

