74
CSD_code = JOPRIS | q = 0 | S = 0 | Stoichiometry = C26H41ClN2OP2Ru | MND = 6
Ru        2.89984833628923    9.96404366931419    4.96558292488856
H         3.82464029461364    9.00136000563500    5.70731176307913
Cl        1.65012388322940   11.64294717962751    3.83749203913589
P         2.55788533170431   11.14254428369139    6.88389892763595
P         3.63285941272947    9.15063440320115    2.96684427769908
O         0.66353605095610    8.02100607394119    5.37510093675891
N         4.53983934438358   11.26458406976542    4.74445786700259
N         5.31629487821418   12.26660907424703    0.33944945148537
C         1.51211810786058    8.78286214964320    5.20041617911518
C         3.77466303344946   12.52036428254083    6.67497208068890
H         3.22730594553769   13.33185043250233    6.17487640209344
H         4.16650278647082   12.89730500207309    7.62297655867314
C         4.86742021654384   12.09968364854106    5.74011660071628
C         6.13681202154593   12.65231080157442    5.84390296257230
H         6.37586105306214   13.29652303084854    6.67589922945652
C         7.07582505806491   12.37427508044672    4.86698095476969
H         8.08020387832668   12.76291781920560    4.93717896321797
C         6.67764779906257   11.63966499685006    3.76327975745158
H         7.35856876066923   11.48989613904070    2.94250209712523
C         5.39214468317924   11.11565545345009    3.71456938166439
C         4.82240385829633   10.49171590408035    2.47466185135687
H         4.14454768724509   11.26692244229007    2.07420638228624
C         5.81110823298863   10.14412681249873    1.35920677949256
H         6.67719068285393    9.59947749772725    1.73754925028359
H         5.29631900787030    9.49332065134641    0.64514972688045
C         6.25730264993218   11.37178538212845    0.61127775521643
C         7.57776899130868   11.54577606524655    0.20594617550576
H         8.32302497569518   10.79626919624599    0.43059619481653
C         7.91632881181081   12.69376568805953   -0.49022177046859
H         8.93433551896382   12.85679110345274   -0.81410667049869
C         6.92932343249012   13.62786665061229   -0.76247036941578
H         7.15193141424119   14.53613712664232   -1.29969900708292
C         5.64158328210332   13.35874749214647   -0.32536812854724
H         4.82703264830964   14.04598265963504   -0.51279390453080
C         3.04601106235128   10.46554959969888    8.54805308654867
H         2.87834082631748   11.24124866473528    9.30460088310617
C         4.52232165095051   10.08246792338529    8.53926942268325
H         4.71978779527404    9.40066740714037    7.71266769381426
H         4.78262037189043    9.57991634902971    9.46951423368803
H         5.16831524039244   10.95160413540511    8.43193453367407
C         2.18531512243734    9.24205572213397    8.84428241822815
H         1.14453669342826    9.51767347387216    8.99717365555764
H         2.53724174885721    8.73257217683962    9.74022609172511
H         2.24005685860565    8.54943111608085    8.00275075378906
C         0.98480287149018   12.10623296043168    7.14789285808085
H         0.99923200703895   12.82576173828817    6.31634989986763
C         0.91863959696773   12.86617651700084    8.46785014632393
H         0.77443657269759   12.18468233265210    9.30371697040169
H         0.07319240580972   13.55235152736453    8.44808392512875
H         1.82226695517130   13.44935772060173    8.63940516837212
C        -0.23445849295888   11.21202091957523    6.94337223937127
H        -0.16502779369262   10.71228939960539    5.97722075410978
H        -1.14286486309438   11.81252791418222    6.95166003990503
H        -0.31700917611085   10.45452946928672    7.71962608119241
C         4.67589604900709    7.60607850526066    2.89566840327424
H         5.05981178224956    7.49894578611709    1.87259221461406
C         3.80366404277585    6.40317434594595    3.24384320699759
H         3.27270798411273    6.59868549773567    4.17717368660146
H         4.41949925932299    5.51460499304797    3.37556286488902
H         3.07764242804064    6.19812234902593    2.46048516913403
C         5.84142822002234    7.69944570893696    3.87363315548887
H         6.46986739761391    8.56636299642794    3.67939446516390
H         6.45903373310740    6.80461893764217    3.80909233645152
H         5.45765813495908    7.78185654443969    4.88899430433358
C         2.54243078582864    8.94057665640872    1.46289397210025
H         3.00669424003982    8.17545476371896    0.82361908177620
C         2.33054469183229   10.22611180657010    0.66721999528555
H         1.94938597483537   11.00821632634805    1.32190579537374
H         1.58338043266618   10.04501055828296   -0.10482291938411
H         3.23692679164652   10.57884092452617    0.18041494460333
C         1.18729441894302    8.43701639814419    1.96195624748551
H         1.28907934036603    7.55712936468951    2.59540922226783
H         0.53901167021857    8.18843637975708    1.12284509291367
H         0.70818309856813    9.22257182142481    2.54612428454126

