69
CSD_code = JOPVUI | q = 0 | S = 0 | Stoichiometry = C36H22F4IrN3O3 | MND = 6
Ir        7.60503011916829    7.94330549611266    3.37326496225915
C         7.69007234549481    8.33758548540772    8.37864317261146
H         7.02950533516089    8.69710164627769    9.15283024011731
O         6.19910392324432    6.54665544354723    2.52149733801325
N         8.93493839551567    6.88282797862074    2.30497837339748
O        10.82904474502600    9.72774127832417    9.55465467395594
H        11.07600968441018   10.26063169131125   10.32623073343462
N         6.26546669713695    9.02154773452562    4.39217769907320
C         8.06742590677890    7.20731765976497    6.28912682082883
C         8.83358654623559    9.30307033335698    4.20771528383530
C         5.88801646377889    5.37771649238099    2.91260039664983
C         9.92495228939085    8.14031747322837    7.50072477910276
H        10.98214624839219    8.33061085509123    7.59468078969036
C         6.74524205994541    9.96164625312099    5.24137034384851
C         6.84942924244569    5.54123893584635    5.23638555610758
H         6.80685123038227    5.06899400515911    6.22403230802739
F         9.11549918592527    8.57767812550499   -1.62828524680366
C         7.20249306932940    7.63327868292452    7.30013710706368
H         6.14289520669646    7.43784084366592    7.20564511477017
C         6.89375571632627   10.19735008672119    1.42746706014902
H         6.29774052614948   10.67223574083935    2.19134944892432
C         9.05187881535664    8.61409501124916    8.47951960788827
C         7.60531704480170    9.03282594342530    1.68509324740677
C         8.37379075167190    8.45939238518215    0.64430151127803
C         9.43809034988318    7.44209964562632    6.41869328211106
H        10.11032094723783    7.08315196579073    5.65506469458139
F         6.24156016986259   11.90626482431893   -0.05554023991217
C         5.16923821140702    4.53558261425177    2.01314639158605
H         4.97365793511101    4.93836981534639    1.03010668883214
C         8.18982296935437   10.13670725508168    5.15666133818427
C         9.52421185945643    9.41449649514060    9.62484773384909
F        12.25573564099372   10.43291416314685    4.62771454653134
C        10.20650496911481    9.43659191613687    4.03509380162384
H        10.73747345027465    8.84087553937882    3.30810688381395
C         6.15785315374224    4.84232968190610    4.21863374701043
C         6.94017028835085   10.77688127018494    0.17390201770343
O         8.83109957350234    9.77328812249223   10.54514343622468
C         9.53517794796904    5.78048235836015    2.74626425358107
H         9.38928760191151    5.53544543618451    3.78915248997046
C         4.74751913190607    3.28704668305649    2.36240435066025
H         4.21040354218369    2.67949370046028    1.64779024731989
C         8.39207690409520    9.08318679867726   -0.60391546332408
C         9.08116815839158    7.23702090097760    1.00516916587488
C         7.68436416138993   10.23910048998643   -0.86071725869490
H         7.71389455872589   10.70120137929503   -1.83339412235805
C        10.30690016432153    4.96407750830550    1.94284260907733
H        10.76844695343529    4.08038581722953    2.35286344087229
C         4.99858263022810    2.78162038315309    3.64658250548881
H         4.65394653346721    1.79542161364153    3.91679751333119
C         5.67938121569151    3.55322784415057    4.54371226931609
H         5.88117127610731    3.17355738640665    5.53701615901449
C         4.04756797449829    9.44499225976202    5.14658267612779
H         2.99649272992558    9.21653168887537    5.07552886972629
C         5.87740254865993   10.66382394255617    6.07766310774728
H         6.25752020531949   11.40462420789570    6.75858682146603
C         9.84634853793241    6.45360739380679    0.14012893914515
H         9.95402198662254    6.73134739510372   -0.89345868592417
C         4.52134152928502   10.40082561162154    6.03454021561862
H         3.84320641516871   10.93614567147040    6.68108502606049
C         4.95811496195748    8.78333425529168    4.34557642428164
H         4.63712935434275    8.03421218007036    3.63441403023307
N         7.55607289095628    6.62300214465242    5.12910217410705
C        10.92275080210413   10.33427734000815    4.80318363365080
C        10.46213005237490    5.30907585160841    0.60827155195633
H        11.05118605044827    4.69556218558601   -0.05578354430057
C        10.32255988934286   11.12790825723950    5.76358505308002
H        10.89473100521887   11.81012585873120    6.36946177349770
F         8.38809972484556   11.79896497752848    6.86289714179634
C         8.95627149413014   11.01651158790249    5.91935098782717

