73
CSD_code = JOPYOE | q = 0 | S = 0 | Stoichiometry = C34H32MoO4P2 | MND = 6
Mo        7.78900168118951    5.66825882435643   19.62780445242397
P         8.01129317166856    3.28135397990951   19.41643351321042
P         5.82652444704043    5.24478190280065   18.35773992746519
O         6.55019505150098    5.76414492410963   22.45876399034920
O        10.28997338615520    6.45968208645517   21.25094000583923
O         9.46025977610897    5.70554732634324   17.02119619404218
O         7.30440994802333    8.71330909821098   19.50569103154260
C         8.04161969206886    2.74944955079885   17.66378228669673
C         8.97767503335655    1.82922697462541   17.22927878409860
C         9.03089542946736    1.30747610956611   15.92735592041804
C         8.07502129824780    1.69730988822053   15.03681219701092
C         7.09982961056691    2.62184298255935   15.45411311843822
C         6.17563384842451    2.87026287309435   14.42282731363373
C         5.13718107838202    3.72889601418068   14.65002270953616
C         5.08184383121118    4.36619938092693   15.89441634681448
C         5.99876801959335    4.15496437510321   16.91154970414486
C         7.05170408645415    3.20927853776145   16.73658977261941
C         7.82536755016325    1.30479129011402   13.61092641921824
C         6.54564027875420    2.07117482451108   13.20835624106720
C         6.61526316961594    2.13374350778440   19.91393300760219
C         5.99725648628054    2.47480725979699   21.26353890016913
C         6.97687497776253    0.65332089661103   19.83298974389435
C         9.54061902273400    2.54172064337141   20.16552651606369
C         9.48843705765820    2.71472603244521   21.68116002737986
C        10.76931918729665    3.25665786672748   19.60387368031558
C         4.29463610565730    4.65917293310669   19.14581390389103
C         3.89496461593452    5.35461952238250   20.28590303220340
C         2.76461113165533    4.97051291055429   20.98070783573244
C         2.02778253047782    3.87810465970749   20.54883469244173
C         2.42002468761605    3.18252386940300   19.41810067639659
C         3.54738892810779    3.57012242928614   18.71354133761571
C         5.25329739729449    6.77320654113784   17.54424358454880
C         6.15542069585667    7.37403070719467   16.66762695044023
C         5.85076525962842    8.57552038823588   16.06072379031466
C         4.64178305349935    9.19943538764684   16.32827777751678
C         3.73973440570228    8.60761139381360   17.19389063637647
C         4.03869435495904    7.39817743977507   17.79938456853735
C         6.93308573342213    5.66592036166631   21.38497399282857
C         9.39236889155110    6.10392175617922   20.63390211406421
C         8.80368544924660    5.69766187528367   17.95843621132640
C         7.49076108576586    7.58616568860484   19.56324878781136
H         9.72502624541062    1.46759504000282   17.91633955880243
H         9.80524122449529    0.60168341590390   15.66554492921512
H         4.38896448621367    3.93778376010494   13.90013570714687
H         4.28277028916655    5.07626675597032   16.06844020861733
H         7.69634323122353    0.22470700248328   13.52115953947849
H         8.67420259248714    1.58494858479975   12.98442290411517
H         6.71911605688382    2.72738009454101   12.35374071036081
H         5.73734716047428    1.38949435959875   12.93650385012487
H         5.85771742487450    2.34630687128380   19.14172548255053
H         6.66992308230189    2.24376792249399   22.08494946183833
H         5.08003494711283    1.90294335866468   21.40313899838864
H         5.74215620428446    3.53142695469270   21.31145854153305
H         6.07162353872421    0.05351663835798   19.91855150555610
H         7.64252329144260    0.36754741831520   20.64441685284235
H         7.45275507767081    0.41365492819786   18.88317850075756
H         9.58993974720709    1.47107483507694   19.93424917252190
H         9.17496127416108    3.72940398342529   21.93580091399822
H        10.47543962398286    2.54623701002661   22.10970222650796
H         8.79907239124942    2.01067750352577   22.14129145844093
H        11.67663343007709    2.72013026491589   19.87927261027957
H        10.83446599177105    4.26229569508934   20.01307731021530
H        10.73379917198607    3.34158918390710   18.51831645763636
H         4.48473255767338    6.20226745711035   20.61799692474549
H         2.46042077204014    5.51650771275708   21.86156141078084
H         1.14887993194234    3.56957548440120   21.09534458006545
H         1.84552940775358    2.33164782864629   19.08090032380326
H         3.84331805477508    3.02248792229960   17.82859495993766
H         7.09996327870592    6.88637066038487   16.46010316324831
H         6.55829178707665    9.03171267179870   15.38397441657808
H         4.40590492671528   10.14499135308437   15.86306927628615
H         2.79500207649544    9.08834068324418   17.40333276386684
H         3.31998927754256    6.94583163051922   18.46847358372383

