51
CSD_code = JOPZUL | q = 1 | S = 0 | Stoichiometry = C20H27CuN3(1+) | MND = 3
Cu       13.01019963836884    0.59079203812850    0.98797676749341
N        14.94611657769801    0.69087768900370    0.81582892836030
N        12.57444989839764    0.29516605160149    3.05302644131505
N        10.95695803558618    0.27324872539379    0.99092593981421
C        11.90155014088633    1.49362069615958    3.56913772671893
C        10.46959359703121    1.63123623953974    3.05555839437820
C        10.31314082556486    1.48329509991377    1.54293031377578
C        10.72690760036716   -0.88273392358232    1.86744281014492
C        11.68993493987196   -0.87136020431995    3.08454283956887
C        13.84974403866128    0.05584703111074    3.72818070682076
C        14.85999197457276   -0.68542449706515    2.82827834136130
C        15.59973964798507    0.22951282651731    1.89418158935361
C        16.92219797293041    0.58030704953529    2.13476672175614
C        17.58666882462281    1.40591414802941    1.24367109453216
C        16.90459691359946    1.86411594359661    0.12539994014478
C        15.58692706971919    1.48767342493182   -0.04401867139940
C        10.49372842020365    0.03020117885639   -0.38110483073120
C        11.08624237973211    1.05099412431832   -1.35816953127371
C        10.96932563997727    0.55116619531107   -2.77327078609592
C        11.94155807263360   -0.28698502987453   -3.30353830182988
C        11.82004311977619   -0.77561427082639   -4.59221017442897
C        10.72136680264804   -0.43370866353296   -5.36262269317396
C         9.74705490463779    0.39942576680813   -4.84025309206078
C         9.87063744432830    0.88869728392667   -3.55149278254672
H        11.86742178714520    1.47029586650799    4.66794711297799
H        12.49182182662406    2.36294525712725    3.26527111243645
H         9.82808030393640    0.91258268003415    3.56461485884149
H        10.10799641269261    2.62274003395599    3.33225434463477
H        10.74420130537671    2.35288631178856    1.04366698703473
H         9.23758373735263    1.45787721659393    1.31833099573579
H         9.68245777847874   -0.91503275171377    2.19623504523703
H        10.91262003468250   -1.78527202648106    1.28303374227126
H        12.30972074664855   -1.76787760296005    3.04682900905450
H        11.12918219646600   -0.90426076667534    4.02602568596063
H        14.27631266686817    1.02138485126081    4.01034068733985
H        13.69647982676589   -0.52157313848444    4.64853257112033
H        15.58161744216617   -1.19586781480017    3.46569327224787
H        14.33179949097292   -1.43821579722853    2.23845745590121
H        17.42568387830684    0.20144953338488    3.01002203167212
H        18.61629001714873    1.67918835070769    1.41310097251419
H        17.38517500097443    2.49715771092701   -0.60190357739252
H        15.02159553911814    1.81820031922463   -0.90380981424505
H        10.83386546179661   -0.96274413840322   -0.68413714317629
H         9.39828885746488    0.04688373986123   -0.43603678308600
H        10.58193512510147    2.01277086584707   -1.26323407397220
H        12.14843194048558    1.18231710840475   -1.09328762607616
H        12.80213717116331   -0.55282327176655   -2.70412528566206
H        12.58398594007662   -1.42257204935915   -4.99629868045143
H        10.62643872466603   -0.81361887299756   -6.36808223164713
H         8.88978937109532    0.67067235322809   -5.43721191130067
H         9.10971293665446    1.54194110851529   -3.14919644997529

