40
CSD_code = JOQBIC | q = 1 | S = 0 | Stoichiometry = C13H23CuN3(1+) | MND = 3
Cu        7.24844705701508    3.10678204022762   10.88482472869852
N         8.32243703966640    1.73341654573050   10.00942035070454
N         8.27408628830628    4.89036618513959   10.55778472400471
N         5.40269394349606    3.59493955177030   11.52596707601333
C         7.27894611916711    5.89239874942198   10.13899269353305
C         6.04682062126558    6.00805077048263   11.04069030227011
C         5.02194519920965    4.87987897155173   10.90622941657911
C         9.22111981957111    4.63798085351906    9.45873365486976
C         8.72870351771927    3.56660454565617    8.46835668344480
C         9.02357040362908    2.17738458065287    8.95670951431178
C         9.99736267769936    1.38936821878655    8.35768869913137
C        10.24411645420556    0.11760776693539    8.84757169401810
C         9.50972036093868   -0.33128692464712    9.93577233870049
C         8.56364688504116    0.51132085075051   10.48620263784906
C         9.00529805229984    5.35449745015149   11.73781491421154
C         4.43411662291935    2.57265573188088   11.10776585937404
C         5.35334805954521    3.69679457597171   12.98914833946069
H         7.76325073434390    6.87806098807432   10.08863917800509
H         6.94363832900460    5.63596932729855    9.13141811239126
H         6.34294409752771    6.13282345041973   12.08060488133448
H         5.53536336531952    6.92763594957751   10.74963583987823
H         4.84575008803402    4.69551834813376    9.84337774234967
H         4.07469430789553    5.21812400894325   11.34821883103157
H         9.42025395422598    5.56968789951807    8.91552805335715
H        10.16596476921646    4.29768724668636    9.88785680498709
H         7.65156133649060    3.67306615442930    8.32007840719613
H         9.22200452461995    3.72187335156857    7.50926629472008
H        10.55114588187683    1.76897462642521    7.51379181387818
H        10.99142994431797   -0.51061563253340    8.38898396230866
H         9.66450666369946   -1.31514127781898   10.34655493927925
H         7.96709807605570    0.20185287830323   11.33221822682085
H         9.70234916722405    4.58478051970560   12.06384442877691
H         9.56408811864577    6.27229581193053   11.52457941488911
H         8.31796450649677    5.55344375278302   12.55549052151716
H         4.46070982868306    2.44906518511130   10.02708127952530
H         4.68310462747930    1.62071211768536   11.57145349360108
H         3.41746769570289    2.85139497824679   11.40514711725995
H         5.59742066724522    2.73238829267581   13.42947860812981
H         6.07333694116329    4.42590807771493   13.35021370559051
H         4.35377325303665    3.99243348113922   13.32506471599759

