58
CSD_code = JOQKIJ | q = 0 | S = 0 | Stoichiometry = C24H18NO13PW | MND = 6
W         1.21189585156999    2.55278748054991    0.04833117625307
P         3.10818415751774    3.14404774884283    1.44288740518621
N         4.31313638702374    2.03083266232213    1.90845621213172
H         4.82805198164870    1.59180239723434    1.15017128740943
O        -1.24942007349514    1.71126628279081   -1.68654062056880
O        -0.27316776509878    1.60616432835186    2.64930590670641
O        -0.02545414902199    5.43054816576843    0.28229298454458
O         2.72278204220359    3.48398838670459   -2.54136900514295
O         2.49362674444745   -0.29867917827499   -0.23427010985300
O         0.81473038960730    4.41401401953627    2.96509424256991
O         1.47603604916462    3.85718124840026    5.04237851303851
O         4.82315130381280    2.58133991867974    5.98465401790186
O         4.24719345536386    4.72919060648106    5.66729146660133
O         5.12313929883661    6.41373642765427    0.07457896080612
O         3.06010577932833    5.56220553187580   -0.26688098109526
O         7.73673910283365    4.44544472507920    1.44572781571693
O         6.66846039964005    5.99639071115741    2.67994654595819
C        -0.34967686936147    2.02473854442733   -1.05497104063079
C         0.25601073303776    1.95913602267838    1.70288504413875
C         0.42709687979005    4.38945960162897    0.23573197444214
C         2.17888658774682    3.14754920147003   -1.59502354252358
C         2.01425195844971    0.73290230876227   -0.13570313565025
C         4.40883791651741    4.45368524085035    1.21264326547901
C         5.45196097717859    4.13671218136323    1.98508264053120
C         5.15633052123522    2.85050636839012    2.78793189581241
C         4.12548425873914    3.31773452723732    3.82986836600041
C         2.94556759639975    3.52130170611989    3.24081549276132
C         1.64477995737276    3.98157106035271    3.73194329501715
C         0.19979474874431    4.24403341219655    5.54313075460687
H         0.04301035502512    5.31364813954777    5.39161229553045
H         0.20437515434117    4.00189176990148    6.60246871116762
H        -0.58825759054370    3.69414616774677    5.02516215634371
C         4.44582745433040    3.47174965331463    5.27368493616892
C         4.47311307181122    4.98784781888001    7.04862924988632
H         3.76074523278585    4.42606680255453    7.65552622750824
H         4.33383103015974    6.05734912196403    7.18300353791728
H         5.48592243172988    4.69039522606799    7.32900562835959
C         4.27278137414245    5.58851763064896    0.28928030242606
C         2.74266596830494    6.59553564052400   -1.19346633317059
H         3.41140081133510    7.44583431558614   -1.04666759470763
H         1.70783787276381    6.88245812776503   -1.01609072564154
H         2.85507137228701    6.21193017060025   -2.20933624570577
C         6.75547251323820    4.85932660354424    2.00029045180705
C         7.81605542078172    6.83935409403343    2.64107287390882
H         8.72320049651521    6.25130642011498    2.79375459063832
H         7.68555080631344    7.56977485015363    3.43536156582691
H         7.86708578249176    7.33492038046996    1.67046358080664
C         6.35530743134125    2.17021057876170    3.37818518624249
C         7.23162962970637    2.90590667208442    4.16814336105995
H         7.03830950522077    3.95312461919982    4.35538143456247
C         8.33983439391726    2.30162269939859    4.72932921970766
H         9.01579281360505    2.88162141089264    5.33977032910168
C         8.57908545473390    0.95483283585278    4.51409923474774
H         9.44494709647082    0.48308311004431    4.95350279009578
C         7.69919223465382    0.21519029520726    3.74535046875900
H         7.87267030438401   -0.83831095405650    3.58581611670430
C         6.58835415990969    0.81742929424070    3.18006413307210
H         5.89477119710716    0.22934486627832    2.59961168878112

