60
CSD_code = JOQPEK | q = 0 | S = 0 | Stoichiometry = C26H31OSiY | MND = 12
Y        20.82595846959646    0.74815921964898    6.50708447118747
Si       20.74201284521319   -1.28658254292369    9.33942889640234
O        19.72777408378917   -0.08549367974604    4.15420326457371
C        18.30586415972948   -0.00820574220977    4.04664583887125
C        17.87613036179225    1.46384860545791    4.16885873531692
C        18.42018265544724    2.07740911811985    5.42183024143561
C        17.90715250833291    1.91767433119440    6.74034751518173
C        16.74267217674899    1.31674998183712    7.23535706096316
C        16.47430166311178    1.38181450050882    8.58208410347013
C        17.33907427185746    2.04381775942602    9.46352682778944
C        18.49874667760823    2.63081954239926    9.01524323860658
C        18.81394103180308    2.56346763781780    7.65222638508000
C        19.92994033142321    3.05112629142025    6.89210383974815
C        19.62387245335309    2.78670480019850    5.51168036899937
C        20.31075261238966   -1.25191857189163    3.57048822475862
C        21.74832465060517   -0.92796556080372    3.11821616886217
C        22.46164721685022   -0.13684141001217    4.17187461424541
C        22.61061487048222    1.27936678696727    4.18350811672560
C        22.37321816272524    2.27060795284538    3.22111044716475
C        22.69971426275524    3.57586799744093    3.50333859457200
C        23.26833518937254    3.93598691224811    4.73431878663922
C        23.50531744784219    2.99761086617210    5.70992701582378
C        23.17001414093611    1.65537052310446    5.46050271891233
C        23.31426461065710    0.45836784267380    6.24173685862756
C        22.90813084238713   -0.62564969203266    5.40193668821313
C        19.88558103536265   -0.97181792505376    7.68088015293323
C        22.32415784821954   -2.33265445722405    9.06700767378133
C        21.27365936731057    0.41967462419455   10.04497019298451
C        19.67466304325342   -2.15022417407851   10.67050674582959
H        17.98795324714931   -0.40420825816668    3.07268459826182
H        17.84057991924190   -0.60948751608553    4.84278535582293
H        18.25630377982440    2.00896354276123    3.30182852257418
H        16.78509268270773    1.50164980560531    4.15652748017416
H        16.05499474325865    0.82166349951537    6.56260779567672
H        15.57547009176064    0.92712136071094    8.97342469352606
H        17.08031993419688    2.09551814071609   10.51142814463815
H        19.15316642330270    3.15672241143341    9.69885529270968
H        20.60049536425101    3.83802069241369    7.22505369487518
H        20.16196928703252    3.21013369185700    4.67071407077832
H        20.31782812772864   -2.06697241222797    4.31151963620479
H        19.71465985318808   -1.57288128105369    2.70654497169049
H        21.70830990551881   -0.34638432791079    2.19628520745753
H        22.26122515808637   -1.87010199250972    2.91160878040319
H        21.95292427785140    2.00960180966918    2.25912828034241
H        22.52744059721585    4.34490971674572    2.76377055415593
H        23.52825084153410    4.97025312005535    4.90822513331183
H        23.96560519159242    3.27844303615593    6.65027268454198
H        23.96295911628621    0.36129919909945    7.10569976802475
H        23.02401577823928   -1.67367775859102    5.64964811310958
H        19.87441574770151   -1.90992664349688    7.10967899280058
H        18.83318537446061   -0.73625770737316    7.88503025326297
H        22.07844946930079   -3.32431380505631    8.70112582178661
H        22.99138251085335   -1.87059145942085    8.34502327759780
H        22.87698406274017   -2.45662534586478    9.99249686153553
H        21.88668172603886    0.98274906940753    9.33170845241546
H        21.84928332329783    0.31693964539573   10.95982169421485
H        20.39795199292565    1.01880587234799   10.27736475419863
H        19.36669740645976   -3.14000050421529   10.34909956694587
H        18.77558256042359   -1.57632403352461   10.87121424370537
H        20.21100251487546   -2.26093310609217   11.60767951555900

