67
CSD_code = JOQPAG | q = 0 | S = 0 | Stoichiometry = C30H29N5O2Ti | MND = 6
Ti        9.04738067294703    7.28193209207225   10.71165601999334
N         8.50140093747178    8.17163045763872   12.42892408569157
N         7.17825353566943    7.62944115785393   10.15733778412305
N         9.86704840954754    6.12956998831442   12.06853854964444
N         8.48815015149970    5.53995635820462    9.89829659501556
N        10.58971992387846    7.27250379384691    9.50013326990775
C         7.39428004045604    8.76560138476305   12.81840796015115
C         6.25253898281825    8.76525051914076   12.01433810940865
C         6.16826535027816    8.26527709539979   10.71346761189263
C         7.27641541090377    9.41264315432545   14.17668996323809
C         4.84999197908946    8.42518057981118    9.99737661974395
C         9.87810418623078    4.83320478161800   12.31132884591211
C         9.26168334623333    3.93316072479337   11.44295072833598
C         8.63817406531842    4.27769165664015   10.23967337595361
C        10.52948344447646    4.27410781845505   13.55182628576398
C         8.10196338410030    3.15328095014940    9.39222505573503
C         9.75035625780186    8.26819269596430   13.02049893715641
C        10.32244759938661    9.36961058713079   13.65342877040695
C        11.63698132996569    9.30443765485709   14.08982671325173
C        12.39761159345170    8.16372882722189   13.89071721768534
C        11.85806334429731    7.06193708826651   13.24326112211079
C        10.53738753582457    7.10073856896017   12.81081707478908
C         7.26971709608842    7.22385731537826    8.82983173459396
C         6.84618225934555    7.91560302316602    7.69939470767818
C         7.10947813119754    7.39491469812122    6.44164054797060
C         7.79776037042161    6.20218290548995    6.29902284902731
C         8.25428767943679    5.50901116511026    7.41041471793446
C         7.99519022522091    6.00869443989994    8.68271988423853
C        10.11231070013811    8.50371871420167    9.11168624814819
C        11.11638693033983    6.32966715148565    8.63963414372727
C        11.60877198921659    5.13875060487831    9.19570167151885
C        12.10431666541766    4.13203293174749    8.39546504444605
C        12.14913358721455    4.26930935681211    7.01131104538553
C        11.69263310923809    5.45935347188300    6.46161912227915
C        11.18436372742239    6.47503706178402    7.24834029001337
C        12.67993589518267    3.15908312227357    6.15179869440046
O         9.50478668740455    9.00546114688025   10.16970002163528
O        10.15459385711628    9.03714844813264    8.01833874013847
H         5.36609388382406    9.23056713143293   12.41906482426636
H         6.27902676812795    9.25008710066126   14.57889339767345
H         7.43084723722033   10.48778796194778   14.09560945162333
H         8.01105545035288    9.00477392679656   14.86783859206770
H         4.03011898687700    8.35477390647324   10.70845906068717
H         4.79724312381125    9.40475351990717    9.52390902242411
H         4.72742426501569    7.66159984439886    9.23166062270234
H         9.30058917589237    2.88614857451264   11.70176273037185
H         9.97243120894752    3.41051869548985   13.90706185201715
H        11.54519193497784    3.94746833606485   13.33148989474658
H        10.57084636423585    5.02410352959697   14.33934913378237
H         7.77308995024697    2.33233669976985   10.02499113295209
H         8.88854217303879    2.77875264108861    8.73810599897070
H         7.26917970086835    3.49023869763517    8.77844583961136
H         9.76773385054525   10.28874630334451   13.75827244342559
H        12.07642816929790   10.16375896620360   14.57354801497456
H        13.42469354129174    8.13613751770214   14.22151906618672
H        12.47314553567257    6.19796290969099   13.03863592144915
H         6.36838607309151    8.87820485991378    7.79621640146891
H         6.79261849025999    7.94122065537012    5.56659365686088
H         8.01432176125031    5.81933942241127    5.31365239558375
H         8.85693416328267    4.62387010367542    7.28203098361385
H        11.59771684588803    5.02793378189605   10.27219677149579
H        12.47002781631084    3.21994174467041    8.84909153003819
H        11.73115407272181    5.59776817369876    5.38982869117477
H        10.83632345586209    7.39178289069979    6.80004665677455
H        12.74785008299685    3.47334342178579    5.11333822678671
H        13.67009493901305    2.85356697349338    6.48751366175341
H        12.02814058701902    2.28600821698966    6.20493386546898

