22
CSD_code = JOQQIP | q = 0 | S = 0 | Stoichiometry = C5H12Cl2N2Pd | MND = 4
Pd        2.63150852272334    1.96858798745038    4.04154450492500
Cl        4.79547935122800    1.94812868544162    4.52163644325240
Cl        2.27527981570535   -0.10288072187256    4.74989051497381
N         0.60317931365281    2.15854459623821    3.43485780323229
H        -0.06430450216625    1.57040760323519    3.93177271472536
N         2.75796417724061    3.96414858887770    3.28791992279978
H         3.51981044489345    3.96820683120862    2.60741376474257
C         0.62612935484337    1.89977010640649    1.99585376374217
H        -0.39367997204339    1.86433033325555    1.58688888343783
H         1.12657035512908    0.94799216292509    1.78962481175797
C         1.38664678054792    3.11910923152100    1.43012599123127
H         2.38780045036513    2.83458025891147    1.09548388161386
H         0.85564418442552    3.55507721952296    0.58524137155521
C         1.46809709374387    4.11530811854330    2.60768776161242
H         1.30339035309145    5.15618066149719    2.29383048523676
C         0.36086136211564    3.59197437961375    3.53646698794501
H         0.45681531743254    3.93955696895497    4.56723557827971
H        -0.62983613283861    3.87371332581715    3.14870777882699
C         3.05968145960625    4.98230917211163    4.29067898153536
H         4.04638225448484    4.76962386004886    4.70324962470834
H         2.33534617354416    4.94758320044857    5.10577585335862
H         3.05333384227464    5.99004742984280    3.85661257650743

