67
CSD_code = JOQRIQ | q = 0 | S = 0 | Stoichiometry = C29H31Cl3N3Rh | MND = 6
Rh        7.42945180909566   11.94389253093084   19.38276539934694
Cl        6.39428193114096   13.89609951657926   18.80278821033307
Cl        5.82689877844645   11.33367088654478   20.95348581456514
Cl        9.08293922718136   12.49922467458935   17.82238848636095
N         8.53917285333845   10.41996227575023   19.61053629207937
N         8.57414304299900   12.62404649219432   20.98307968283504
N         6.51321709161865   10.68117976820060   18.01721766664295
C         8.45731584089735    9.45653891944882   18.68380922728296
C         9.45185194133810    8.48768526300333   18.59435319446373
H         9.39960189309281    7.71038371038752   17.85074154900889
C        10.53486877927654    8.55703299423678   19.45545000909477
H        11.32002743169715    7.81941306649470   19.39705674655135
C        10.62683324823475    9.59870604215779   20.36417406403973
H        11.49226587974577    9.69187425333295   20.99855201311940
C         9.60312285617946   10.53941999845366   20.41348484975020
C         9.55382885066789   11.72255078079424   21.26533604633808
C        10.42127867142997   11.89251922996070   22.33477057184874
H        11.18861807805478   11.16147205870699   22.52673957040784
C        10.26960736860647   12.98540587356546   23.16807163059642
H        10.92598357458647   13.13165070691830   24.01281575254489
C         9.23905818624863   13.86878861929477   22.91787850819111
C         8.40247878547700   13.66187536069878   21.80118168842714
C         7.27720394861972    9.56967103517223   17.83409737087964
C         6.92565524302673    8.58390768459376   16.92284725197932
H         7.55921255143869    7.72365834621661   16.78740721324917
C         5.74865393484018    8.70605622589700   16.20695407406309
H         5.45944950468211    7.95445493307897   15.48772497387379
C         4.92885363173218    9.78677269565047   16.46164414775583
C         5.34325538983569   10.76942392953042   17.38571578575771
C         8.92923679698074   15.03763380048655   23.78519975542712
H         9.62923004195038   15.14400149832439   24.61335052347267
C         8.67379979030448   16.23672388969752   22.85275867239621
H         8.72155971001322   17.19359841364123   23.36336653714686
H         9.27944470691880   16.27951625497391   21.94943659034211
C         7.25030356883702   15.68117611159853   22.69753013826647
H         6.43043387167876   16.38225394402219   22.55007887636905
C         7.28204586001454   14.63024570738279   21.59658341330099
H         6.33857887768987   14.07967419616493   21.53672942546096
H         7.40648653668200   15.12310527596118   20.62851265283542
C         7.40340233596103   15.03360367162750   24.09494268326927
C         6.72527402166738   13.69721867971358   24.36329374977544
H         7.07424491068041   13.28959721371746   25.31096050066800
H         6.91096577217622   12.95841302228605   23.59051432630649
H         5.64927816919079   13.84288839296183   24.42953932034350
C         7.04635060130287   15.98982345196648   25.22807618727104
H         7.51038007414938   16.96383192819429   25.10746930355073
H         7.36643235149968   15.57516272786319   26.18227962854936
H         5.96800031244294   16.13022870361478   25.26254496654338
C         4.40252261233753   11.89864933402505   17.65353464609207
H         4.88204990623103   12.84839746672191   17.40479396735373
H         4.20501875859613   11.93718660923862   18.73008659728213
C         3.10807631347221   11.73623637852489   16.87019258300172
H         2.40880997056205   12.54094856357480   17.09147267264861
C         2.62686023006946   10.28528354249912   17.01517232447637
H         1.58092886492995   10.14032401152747   16.76310672782708
H         2.84146844365621    9.79578331783570   17.96343139412507
C         3.58322658923883    9.96174410695773   15.84923802486056
H         3.32940936725617    9.16060934512499   15.15579704730935
C         3.41165204764752   11.43439393904232   15.38185712435680
C         2.19081867111092   11.61826107205097   14.48659630397564
H         1.29917725749004   11.16400111348742   14.90758129598961
H         2.37123576145588   11.17376219522466   13.50948894504613
H         1.99691008574322   12.67965792159957   14.34727929720501
C         4.59985068599029   12.12036880750894   14.72191428722487
H         5.53212832149410   11.96237478801602   15.25492602507464
H         4.41931435657235   13.19192301724413   14.67015041929502
H         4.72606312258986   11.74525971326592   13.70754527417775

