71
CSD_code = JOQWOD | q = 1 | S = 0 | Stoichiometry = C29H36IrNO3P(1+) | MND = 8
Ir        4.53308345598481    4.21346461018270    0.45114355401411
C         5.02901189919399    6.35571470060256   -0.23866570433412
C         4.15029515585939    5.64787234714368   -1.14305085989940
C         2.86102363873397    5.53246283935451   -0.49110991905278
C         3.01193252801113    5.96345531414106    0.83033895227057
C         4.37155127152218    6.46274507011900    0.99750986103101
C         6.33280176206136    6.97385336950051   -0.62366003525040
H         6.93098318113765    6.30297165261557   -1.23699693662074
H         6.91386557260698    7.25547810098543    0.25009251887912
H         6.13900848752497    7.87645794044401   -1.20529543482311
C         4.38290033538558    5.54003455736922   -2.61778966492666
H         4.12635351096005    6.48613201508570   -3.09729440597261
H         3.77007127702960    4.75946866114395   -3.06265828476749
H         5.42681469182005    5.32387846268128   -2.83348669331092
C         1.57822975625620    5.15057763826646   -1.15255512437665
H         0.92925630968157    4.59940437134448   -0.47542375462330
H         1.75228458879084    4.54516055850690   -2.03848343315779
H         1.05038193380775    6.05400399499464   -1.46237115174046
C         1.90514020412886    6.14402706367034    1.81605305271224
H         1.43378528468087    7.11564307760097    1.65756884592363
H         2.26775426119980    6.11699629306444    2.84202941659142
H         1.13988799387313    5.38011935962694    1.69301706214847
C         4.84065984807143    7.28086465737422    2.15980138919065
H         4.69812263214587    8.33964689302805    1.93727349722585
H         5.89886971813014    7.12566579164200    2.36336849156337
H         4.27725258571601    7.05609778754578    3.06232213921960
O         2.60702221914275    2.40610289667445   -0.20313834771741
C         3.90678333592465    2.53928052524328   -0.40204525630954
C         4.61301436060198    1.62835903593558   -1.20309501983773
H         4.06657166414485    0.85320259979874   -1.72684122341747
C         5.97936362463947    1.62004821921352   -1.37177978021574
C         6.88784785897059    2.52562000446750   -0.72399443352868
C         6.43962843229957    3.53379465150492    0.16139878169500
C         7.41279016974919    4.27040740449739    0.83751840368874
H         7.10898130394000    5.01575917443682    1.55947580482656
C         8.76563937648506    4.10466561295876    0.60693925315048
H         9.48368795749757    4.70820188155823    1.14126275669011
C         9.19607836419741    3.17500261309230   -0.33185805609399
H        10.24737117040921    3.06125342748230   -0.54392103878640
C         8.27037277375386    2.39539693084012   -0.97918823799488
H         8.60577180544231    1.66808926964135   -1.70165770883704
C         1.83468502382957    1.35013834288427   -0.77439988631448
H         1.83976194579597    1.40369840307503   -1.86455306876787
H         0.81909581989512    1.49809704446627   -0.41220987044368
H         2.20053420542830    0.37435675213822   -0.44919658678305
C         6.50419157891468    0.54590753117139   -2.23763039323084
C         6.14354780898181    0.50536758317723   -3.58413069132499
H         5.52452459592150    1.28958728098665   -3.99190632122855
C         6.59620607062461   -0.51303607268670   -4.39929510662084
H         6.33813175778357   -0.55477504723190   -5.44646439319572
C         7.39808890968256   -1.50822610202788   -3.85734514403091
C         7.75529209867415   -1.49336153984541   -2.51536012209662
H         8.37536738452212   -2.28611622806366   -2.12559172988792
C         7.31112824460525   -0.46380538709941   -1.71040031631146
H         7.57365573036451   -0.44283732971399   -0.66372932525385
O         7.51649243673722   -2.57039237267958   -5.86361298389234
O         8.57289072996170   -3.42453018154924   -4.19629717204198
N         7.86677430352371   -2.58603946000524   -4.70649225346625
P         4.52396903348588    3.19474866052513    2.57317650284433
C         5.36166994311870    1.56860283729723    2.67268613837136
H         6.41643153598337    1.69078954100628    2.43651794333822
H         4.92196734219992    0.88430592621952    1.95059118870472
H         5.25826859748246    1.15657655248562    3.67545030901754
C         5.28207386733908    4.06471207181139    3.99145427112476
H         5.16561538826304    3.46433220222402    4.89281642308157
H         4.80371321127542    5.02890367314137    4.14213563375239
H         6.34117741117269    4.22077487883863    3.80064419170585
C         2.86022691099690    2.79452226447887    3.21645044817030
H         2.94386482005239    2.23968399490870    4.14988595376766
H         2.32374595229650    2.19576615529428    2.48445281630707
H         2.30176103942171    3.71006664913037    3.39310026956723

