94
CSD_code = JOQWER | q = 0 | S = 0 | Stoichiometry = C34H55CuN2O2 | MND = 4
Cu       16.24651763827956   20.10725105200195    4.18993943661871
N        14.63911383431995   19.57996788246258    3.20591615947850
O        16.54571630559848   18.25859210396204    4.26535560410464
O        16.03974882897808   21.72539710160957    3.24295284143740
C        14.43519313801601   18.23635934847609    3.25145171790648
C        15.46974322548781   17.57106022799073    3.98682973121626
C        15.31700079829091   16.19607781334889    4.29269811839311
C        14.20811969326206   15.54763252197921    3.79389167914164
H        14.09775367490564   14.49462163568914    3.98785766868103
C        13.20206124329362   16.18021535474468    3.04885540770760
C        13.33087520753553   17.52345289098895    2.77535939335304
H        12.54578953775529   18.05625824465150    2.27147225045953
C        16.38439866685946   15.46998663099443    5.10014734854441
C        17.71062912978402   15.52584986233426    4.32955381741749
H        17.61218740735937   15.00955986766670    3.37663970228007
H        18.50304102291383   15.04886343430192    4.90388425210611
H        17.98640251834605   16.55801043105944    4.13572199035029
C        16.54239321103564   16.17353128180950    6.45359372297546
H        15.60510732962351   16.14569222395247    7.00670595218647
H        16.82374073795953   17.20915697380465    6.29357068164132
H        17.31446673367843   15.68875083214001    7.04844114436552
C        16.04525548604998   14.00058246411649    5.36674278711163
H        15.11036008901728   13.90547743698221    5.91507670388721
H        16.83529148357313   13.55621302828605    5.96958888305476
H        15.97661570352399   13.43620535993592    4.43961104669723
C        12.00522879959923   15.36077404676890    2.58748827869861
C        10.99778312584152   16.18686150086917    1.78195322867288
H        10.17386139108154   15.54860224852943    1.46811749010635
H        11.45870084840510   16.60223570644291    0.88860375137254
H        10.58493967862872   16.99524109448977    2.38133049564358
C        12.49905897323004   14.21513040796482    1.69200665254843
H        11.65507632429004   13.63184799841377    1.32864051473644
H        13.16557812754370   13.54818332110240    2.23119734065604
H        13.03769201517938   14.61523410735403    0.83553433733608
C        11.27957851780339   14.78768347564446    3.81282614690833
H        10.41103373044909   14.21096924447311    3.50036276579718
H        10.94408373571537   15.59492083557396    4.46074973423749
H        11.93044449297744   14.13696423613207    4.38997004543925
C        14.25203948714810   20.52378691064559    2.33078896772377
C        14.93481336040301   21.77220227626958    2.56846635434465
C        14.41161596839143   22.95298452308032    1.97731695845802
C        13.42003458815621   22.80440072961029    1.03632259559469
H        13.04779191251608   23.68361041053145    0.53907429253531
C        12.88619584270502   21.56134535932177    0.64361745655597
C        13.31610017683124   20.42846440610435    1.28841833144457
H        12.93526660852600   19.46120380550279    1.01913888097579
C        15.00026789061910   24.30927517318414    2.33708013344388
C        14.90288466556649   24.49000949510787    3.85719873817338
H        15.41808209201173   23.67730997445452    4.35759181483578
H        13.86032738378864   24.49026106507758    4.17063083374382
H        15.35780950171927   25.43176050055798    4.15837399879614
C        14.26721352037194   25.47718237860142    1.67099603534474
H        14.69940717586030   26.41421851870908    2.01757475408789
H        13.21072571117389   25.47712263710647    1.93103048776474
H        14.37000387012421   25.44393307638369    0.58869605724234
C        16.47098007687875   24.34880312699728    1.90092414316730
H        17.02200864662475   23.54252052921731    2.37484062075131
H        16.92223411514663   25.29938254552162    2.17993971746927
H        16.54574642191435   24.23138725771927    0.82155697143006
C        11.84525166863991   21.53180956434754   -0.46589071502027
C        10.62573758251077   22.36152220033090   -0.03944328158287
H         9.86167860981583   22.33103689144887   -0.81389656490923
H        10.89244167809555   23.40028348913959    0.13337977722842
H        10.20272184376507   21.96111135651089    0.87961832061371
C        12.45732640788031   22.12473104498902   -1.74316148220211
H        11.73348912076909   22.09399598830434   -2.55537945384259
H        13.33358257625771   21.55138664940504   -2.03858630904301
H        12.76050283962328   23.15764587798746   -1.59710608741467
C        11.36461903365924   20.11290695355272   -0.78480792490995
H        10.63507375678484   20.14932907362534   -1.59167213406704
H        10.88488798172279   19.65783150938149    0.07907789126293
H        12.19137477545137   19.48429008682490   -1.10781735372604
N        17.28568632108950   20.70687002915935    5.89619537341024
C        18.57352919134163   19.99166435335039    5.86105427720405
H        18.34242195559487   18.92539560626379    5.83981959963695
H        19.14866702812493   20.20208740052067    6.77169633449306
C        19.39831641646366   20.31755413963486    4.62468858456378
H        20.21959886535577   19.60988624834753    4.54504026479765
H        19.81343394347509   21.32126635435912    4.65931345322868
H        18.77142143372833   20.22189887507890    3.73813890896754
C        16.50783668529950   20.26017024545020    7.06241769828308
H        16.99167911120529   20.58608678340158    7.99198291410708
H        16.51193461955510   19.16874223343366    7.04906223392294
C        15.05908494729802   20.72915579616251    7.03888906197290
H        14.49299472277465   20.18662307435441    7.79223170517199
H        14.62201820944206   20.52190130962763    6.06053358720225
H        14.96687616607354   21.79198894256754    7.24702642926652
C        17.45901953447826   22.16965019286901    5.87356880332092
H        16.46571877426265   22.61135692080802    5.94273807859126
H        17.85857245600374   22.43741655608524    4.89584344114481
C        18.34482366212193   22.76511274337923    6.96744171847094
H        18.33095675271672   23.84736513742602    6.86655851422164
H        19.37595596720805   22.43427350620558    6.87880418105266
H        17.98173393916067   22.51827393710410    7.96202318733788

