41
CSD_code = JOQXAO | q = 0 | S = 0 | Stoichiometry = C16H10F12MoO2 | MND = 12
Mo        2.37466337260632    0.27023129098412    1.34051629222012
F         0.75420440483904   -2.44741532303426    3.47190760955058
F        -0.16394402037314   -3.75207247480885    2.02885053325800
F         1.56334022959047   -4.41526279114439    3.10966895170842
F         1.26409041559552   -3.08200078167302   -0.78535549443239
F         2.02373957322658   -4.77670583893449    0.31450446491487
F         3.34872591455323   -3.19686134269249   -0.32941880639092
F         5.91932092183225    1.43674766760449    2.91009509773906
F         7.15658800377296    0.11513302760496    4.08245395514271
F         7.18539213776048    0.01506820545077    1.92823237456201
F         3.77314815872320   -2.16765952149862    4.23054328318229
F         5.83978874526465   -2.25108174615258    4.84795147173720
F         4.65325247527246   -0.51105981415632    5.28746913467830
O         2.05585943702338   -1.44284476192880    1.45973279967802
O         4.52092598700490   -0.98951206834303    2.00977520790308
C         1.91730230280568   -2.71923553270237    1.47495520224812
C         1.03586822522677   -3.34435984492503    2.51143820525157
C         2.13789235524899   -3.45967748614918    0.19838160033797
C         5.25951478288006   -0.84735327500951    3.00052212216290
C         6.39087996731259    0.16142364085950    2.99566325506818
C         4.89646729306788   -1.45152081780548    4.34369628030266
C         2.48561548928503   -0.08107598363202   -1.00858785001170
H         1.97699217133400   -0.82691235528367   -1.60591272529318
C         2.01646502580883    1.22503693545825   -0.75326591045477
H         1.09836095689622    1.64779925352862   -1.13454361945381
C         3.06298402403230    1.94736496535718   -0.11988055328430
H         3.10455256806832    3.02614542181215   -0.03183579193343
C         4.17162747588205    1.07545271962986    0.01918082099552
H         5.16019774333704    1.36143760654151    0.34256900462041
C         3.81864660249817   -0.16916139146158   -0.53706481941068
H         4.48598826145193   -1.00739967219242   -0.68275710765283
C         1.87297216977600    0.32440312008246    3.66391719712510
H         1.99578150877922   -0.44321311605741    4.41618706024138
C         0.67019556021456    0.57354748187649    2.95605586677652
H        -0.25059175877205    0.01923542863471    3.07442592990565
C         0.82964878403964    1.77757818562432    2.23748849882258
H         0.04227218785402    2.31079008976455    1.72375641539349
C         2.12914525192405    2.27864053974148    2.50680042053506
H         2.46905906701479    3.28701726418854    2.30594645763683
C         2.77730359034188    1.36970172308462    3.37969999141483
H         3.70766263700699    1.55663137177224    3.89193717318738

