88
CSD_code = JOQXEU | q = 0 | S = 0 | Stoichiometry = C43H36Cl2N5PRu | MND = 6
Ru        3.89146231280636    5.22804246763553    3.31001814922344
Cl        1.63155179159820    4.83614834401100    4.12404696767139
Cl        3.35645158012154    7.15908192967191    2.04899080780189
P         4.03050860580049    3.45623837484499    4.77708951294203
N         2.95811826925783    3.99113805367497    0.56498416163312
N         3.83773456678844    4.29336907873874    1.50892703917757
N         5.73106093297227    5.28855325374407    2.86425219633572
N         4.54181441320881    6.48886220394853    4.74097534527189
N         4.05074445266322    7.30685867199387    5.65550043268579
C         3.58631249744937    3.58851474734311   -0.57048607898958
C         4.94742150050897    3.65837660561811   -0.32666130689533
H         5.73680865771899    3.43732880490682   -1.01490918096309
C         5.06952565201626    4.14294187309252    0.98198437158099
C         6.17251270703420    4.63986239340904    1.77088846351389
C         7.53100387977449    4.56820249232760    1.48791913600918
H         7.87176264303249    4.04225068736771    0.61083656085514
C         8.42612472339031    5.18767472448154    2.34856007410951
H         9.48586904494285    5.13884059674126    2.15282596075232
C         7.95533233031347    5.88687757663570    3.45209051449829
H         8.63055541635533    6.39662831763538    4.12027801688504
C         6.58635719306268    5.93053540911532    3.68221324427571
C         5.87725578956974    6.65344358798636    4.71165240102944
C         6.23488128975806    7.60914323266620    5.67153317083141
H         7.22005084605503    7.95332505315536    5.91035745733772
C         5.04493525603809    8.00746121047033    6.25969845169479
C         2.91909542950199    3.15703363355533   -1.79339223983277
C         3.38964490022865    2.02097740020897   -2.45159186256183
H         4.21532136833948    1.46857201431088   -2.02754323819047
C         2.79906112188472    1.59611596612156   -3.62596289106057
H         3.16934889516679    0.71202815963954   -4.12382065405260
C         1.73476377639448    2.30104473415458   -4.16408695565471
H         1.27332170509503    1.96863986578274   -5.08186810224837
C         1.27074344724694    3.43819538458731   -3.52478531131619
H         0.45026112190172    3.99893823584544   -3.94742018611321
C         1.85635200507036    3.86698575084721   -2.34778872212197
H         1.50730930492011    4.77252242170760   -1.87751567287824
C         4.84630470274979    8.97138997774728    7.33268210561259
C         5.62590681652309   10.12723118217683    7.36665347979512
H         6.34103630155735   10.30560489996861    6.57776488067399
C         5.47187176129478   11.04615077272891    8.38669052836391
H         6.07632479013657   11.94100411202214    8.39843302072582
C         4.54275262245601   10.82396286334670    9.39008979843621
H         4.42174942749621   11.54362036063041   10.18581252271060
C         3.77287799427442    9.67307953940507    9.37062084054501
H         3.05379552068260    9.49070675300205   10.15567602712021
C         3.92024830088508    8.75055609100681    8.35143784910221
H         3.33592124885907    7.84322338605629    8.36066156002656
C         1.55345592023107    4.19917717107012    0.77925345448493
H         1.35204342839176    4.19674988913707    1.85452172447359
H         0.97544993705939    3.42168759556164    0.28137133816669
H         1.25952266225863    5.18198765957199    0.40334649530279
C         2.63083597263449    7.47584283493664    5.77365341147145
H         2.19126099561347    7.37347420523860    4.77646345567123
H         2.40927921615421    8.46513840241324    6.16887152921376
H         2.19495502474872    6.70812579651358    6.41758027017994
C         3.71401594226282    3.98882709649976    6.48828228042164
C         4.68382695916250    4.72405205653315    7.16807189538642
H         5.64422124517270    4.90818331036181    6.70309153688346
C         4.42289491704883    5.22928211128969    8.42871841757371
H         5.18292433120800    5.79595747051149    8.94802792493657
C         3.18554471170913    5.01911654627948    9.01669407667503
H         2.98114401630510    5.41743119680984   10.00005433878207
C         2.20979885206654    4.30765375599679    8.33689458336872
H         1.23948531566483    4.15649470534114    8.78666008593323
C         2.46766570616503    3.79558403547794    7.07761311111485
H         1.69851615402666    3.26568487220168    6.53518164056785
C         3.05130036331277    1.92647378480098    4.62826996878273
C         2.39484067127260    1.62373827900673    3.44495789007812
H         2.41262812169030    2.33931978654161    2.63726335289800
C         1.71235736962465    0.42760039004225    3.31332588988007
H         1.19469514251996    0.20033815699331    2.39277514807235
C         1.69155357216670   -0.47515180884625    4.36243805545147
H         1.15436768512966   -1.40705658833430    4.26411440300933
C         2.36345790725732   -0.18535868762188    5.53999931946921
H         2.35400239316825   -0.89359060668425    6.35588744023297
C         3.04885414710853    1.00675169485196    5.67329169324167
H         3.58102980900584    1.23087620765195    6.58795034080550
C         5.65784240758052    2.61007660911574    4.86805669346934
C         6.42221295170197    2.37127987434782    6.00218192695612
H         6.07193984811461    2.68122903838313    6.97587404635192
C         7.63914891659389    1.71939725189312    5.89274448422641
H         8.23016341181538    1.54306718379553    6.78002242255911
C         8.09948730635100    1.29152132829898    4.65977500839809
H         9.05390081527118    0.79218687228270    4.58181188051836
C         7.32408119953789    1.49063788493132    3.52872678318236
H         7.66605446004946    1.13888602070591    2.56626969984296
C         6.11096718253173    2.13989869363382    3.63716938549257
H         5.48490409541730    2.28014472631142    2.76392995020021

