51
CSD_code = JOQYEW | q = 0 | S = 0 | Stoichiometry = C26H20N2O2Pd | MND = 4
Pd       -2.11362099812381    0.00003504380937    5.82496011017192
O        -0.17603068813588    0.55904349426228    5.53818541590851
N        -2.26924322632732    1.50401287055266    7.11980008429547
C         0.55225247039591    0.91452665761506    6.53342586490864
C         0.06706470435512    1.56158877405661    7.72007866185426
C         0.97992217792807    1.95087905260432    8.71799921418877
H         0.59274097945030    2.44322974149498    9.59994605589739
C         2.32240904956079    1.70777981905664    8.60320886576770
H         3.00319414593342    1.99973776362431    9.38783356052047
C         2.80721633777969    1.08410966908332    7.44816337072399
H         3.86691961150872    0.89618199265521    7.34954292934703
C         1.95601718654950    0.71300113459869    6.44452480678164
H         2.32077858512360    0.23549571586390    5.54709678558859
C        -1.30216058577883    1.92449106433367    7.86763005778279
H        -1.51883016356299    2.68034595745560    8.62815099979628
C        -3.55337808006934    2.05598194433287    7.19053799658274
C        -4.19326601509728    2.32361654106463    5.97515543733361
H        -3.65918655336889    2.11112087849844    5.04298512172027
C        -5.46944449885404    2.84823697832124    5.96670711113856
H        -5.96338697692073    3.04729901930757    5.02734470555693
C        -6.12129390071748    3.11046273642501    7.16327571983986
H        -7.12413365730795    3.51022709770827    7.15524519698049
C        -5.48962973144357    2.84941954695989    8.36697690212797
H        -6.00079536138279    3.04429754726275    9.29827081722919
C        -4.20738901780543    2.32934869689352    8.38854081550775
H        -3.72913281108460    2.09646215611561    9.32903871132748
O        -4.05109137565312   -0.55901012350470    6.11222350254073
N        -1.95817793567036   -1.50386867096297    4.52999567452610
C        -4.77967356307553   -0.91488610183017    5.11735524409810
C        -4.29475992889681   -1.56196293047003    3.93060801736577
C        -5.20791248757547   -1.95162245241418    2.93308858681490
H        -4.82095837653162   -2.44402202087244    2.05108070221948
C        -6.55042516035003   -1.70891708390464    3.04839733500549
H        -7.23144602193165   -2.00120887853849    2.26410567067246
C        -7.03495948015301   -1.08525319801667    4.20356985946304
H        -8.09467391610407   -0.89759378202936    4.30257396650115
C        -6.18345861653285   -0.71373709972299    5.20679906151588
H        -6.54798132571654   -0.23616053980723    6.10427885749813
C        -2.92549236893334   -1.92446607420183    3.78251609769438
H        -2.70892354049309   -2.68015057600804    3.02179747002587
C        -0.67394634041188   -2.05551908989592    4.45843456574849
C        -0.03340891138887   -2.32351832610698    5.67338324727452
H        -0.56705820642782   -2.11147928054710    6.60589025151303
C         1.24287145742774   -2.84790708952591    5.68097267117015
H         1.73734076232431   -3.04722337741645    6.62001028093781
C         1.89417980263821   -3.10950263100760    4.48397342710528
H         2.89711155734473   -3.50905560649064    4.49133890041128
C         1.26187687764417   -2.84806964803426    3.28069512480466
H         1.77261899871007   -3.04245632500856    2.34906588609779
C        -0.02048424680920   -2.32826360103614    3.25998878995060
H        -0.49926063603827   -2.09507738660325    2.31983149016613

