73
CSD_code = JORBID | q = 0 | S = 0 | Stoichiometry = C38H32P2Pt | MND = 4
Pt       10.37148435705692    4.09598273897553    3.76612069933459
P         8.38504699579420    5.42929371871053    3.60846529054651
C         7.65238391091114    3.76910360608064    3.74826818859672
C         8.73309359985831    2.90228150323405    4.01177102203797
C         8.43105370816052    1.64231835997361    4.53352024764197
C         7.09474731514322    1.25383186461246    4.60815354801861
C         6.05472089710823    2.09231170995257    4.24439970911670
C         6.32357017988821    3.39409267816411    3.86044301490677
C         9.47523967854585    0.72935636197821    5.10640657355357
C         7.95799267350300    6.03008887024083    5.27288262555282
C         8.85347652669798    5.65713307496642    6.27195418360258
C         8.61177736628430    5.99445157285161    7.58883746877803
C         7.47099128134581    6.71153573852545    7.91466175108629
C         6.57412971561134    7.07878168064890    6.92463965097774
C         6.81035036845877    6.73836404979527    5.60440911775343
C         7.34883142857182    6.39806598761778    2.47524232213746
C         6.65853640207925    5.77116688113218    1.44283774862091
C         5.91955737910619    6.52371871874555    0.54837345506995
C         5.87830059295425    7.90349862696358    0.66746337702445
C         6.59165384327130    8.53443478157073    1.67490897775163
C         7.33310751337562    7.78761752953915    2.57054608288016
H         6.86604883848904    0.26733632397512    4.98950911349673
H         5.03314081749091    1.74575090346221    4.31269189964816
H         5.52634661321279    4.09723597397456    3.66009178078104
H        10.46001124364665    1.18224028265086    5.03017097516440
H         9.25561604903831    0.55127548329235    6.15915363813713
H         9.47573826479316   -0.23444105318485    4.60054765741916
H         6.70223705945544    4.69470495831446    1.34966154029441
H         5.37378564207917    6.03333787953869   -0.24467003384355
H         5.29680632943230    8.48892089121180   -0.02952846627654
H         6.57142232602641    9.61153087010528    1.75852244247309
H         7.90062668558344    8.27489336957498    3.35267786440415
H         9.74547673461271    5.08454520171562    5.99716819285348
H         9.30892374600178    5.70318011370095    8.36081511034374
H         7.27860106873752    6.98186067108571    8.94263031868558
H         5.68186334698158    7.63068460068009    7.18349847362659
H         6.10521561963081    7.02181634482752    4.83560854080797
P        12.35791174277575    5.42923280287776    3.92428179288850
C        13.09054913393362    3.76904254803472    3.78440047960432
C        12.00988195221689    2.90217447113882    3.52087455569135
C        12.31201228983367    1.64220293854137    2.99921401294510
C        13.64834805365371    1.25381867855252    2.92457402168958
C        14.68831881192389    2.09235830697040    3.28832345482643
C        14.41937718421416    3.39410577936596    3.67232303884624
C        11.26794520248872    0.72908170757260    2.42635147674618
C        12.78490905149049    6.03011288771289    2.25988051043811
C        11.88941662455066    5.65717222249073    1.26081098696319
C        12.13104633664332    5.99456392726551   -0.05606503865307
C        13.27183887151314    6.71162938771520   -0.38191042309803
C        14.16878624053319    7.07875040143896    0.60808588986304
C        13.93257238895892    6.73833938637150    1.92832730590787
C        13.39408482493066    6.39796753716133    5.05755463969736
C        14.08457952687148    5.77110753030770    6.08973593904221
C        14.82359441270681    6.52365849924348    6.98416082283820
C        14.86451397531707    7.90333954259477    6.86538420958888
C        14.15092217227107    8.53423643811689    5.85820754881883
C        13.40953376809167    7.78743353154827    4.96251022941998
H        13.87709631193604    0.26732469922407    2.54324418620406
H        15.70992450341777    1.74582167437877    3.22017557310941
H        15.21654067977289    4.09727399780409    3.87283371229767
H        10.28309578336299    1.18178565630407    2.50259802402479
H        11.48756498119915    0.55098135116100    1.37360324041541
H        11.26764382220622   -0.23469389931390    2.93226105233309
H        14.04008978629234    4.69458965454625    6.18352058655333
H        15.36864705267307    6.03327170880348    7.77784765712953
H        15.44611680399125    8.48874095138211    7.56229950867114
H        14.17207697186949    9.61144880441770    5.77385129144147
H        12.84276020637725    8.27476622474675    4.17970101539200
H        10.99742203915680    5.08457968478386    1.53559434375874
H        11.43391474771145    5.70325400674468   -0.82803069750283
H        13.46423162476962    6.98195038408919   -1.40988769685436
H        15.06105436443213    7.63064840042024    0.34921482133098
H        14.63777163696252    7.02172530640713    2.69709382465086

