51
CSD_code = JORFII | q = -1 | S = 0 | Stoichiometry = C18H22BCoN9(1-) | MND = 6
Co        1.90716822838011    3.86166592042510    8.86800966079764
C         0.55038843148621    3.58169826542100   10.06377997706315
C         2.70505662883821    2.33838395293287    9.49413265445592
C         0.99388834713264    2.82860345730740    7.66485009328261
C         3.20269441862454    4.89638378870499   11.49294123540183
C         3.95330664668043    6.01092118743484   11.88541160887976
C         4.09758249448884    6.78324201059957   10.75034975566507
C        -0.21991230347894    5.87632044235361    7.84203788252282
C        -0.23653646320291    7.21239149062384    7.42462760933747
C         1.06736231768461    7.65336069001289    7.52974626923687
C         4.87021034615347    5.45744744021932    6.51375753843212
C         5.02545932809586    4.17555951135821    6.02557644144001
C         4.08220030990545    3.39459194604495    6.70377981983474
C         2.78358093242710    3.76980735401732   12.36608669527597
C         4.80731054706548    8.08194871923295   10.58934527086239
C        -1.39014203863325    4.96326129974111    7.90710751489136
C         1.62559960514789    8.99781264781861    7.21832890952336
C         5.61411930098654    6.69285950994011    6.14421618526093
C         3.85883498448591    1.93676351067933    6.52453870205971
N        -0.30139637789272    3.48335071649699   10.83447128603127
N         3.27808758594698    1.41928924875413    9.88929327408764
N         0.43585671786107    2.23562488598169    6.84870886978064
N         1.02435487965540    5.54664966594371    8.17534108294022
N         2.91942930213187    5.00442278713617   10.19830217829560
N         3.40750308265457    4.17189617670916    7.54552087209418
N         3.46179245076825    6.14726804067378    9.75011025138756
N         1.80269744887563    6.62333877598992    7.98534366079955
N         3.88569041491951    5.42052665333719    7.42950104939603
B         3.30369362604843    6.55244903365983    8.28161726806040
H         3.83907594890205    7.58355532742631    8.05648588009567
H         4.33611330078348    6.21946571078514   12.86552308116572
H        -1.08731147714076    7.77488925640542    7.09231857849404
H         5.72323674052487    3.84442160539953    5.28120725500704
H         3.18164279966994    2.82973528474902   11.98889359844851
H         1.69904522382332    3.68009448562256   12.37478543740706
H         3.14398703610794    3.93798908126580   13.37939584300487
H         5.60696524832442    7.99721339558851    9.85415234042541
H         4.12126614244479    8.85868412869796   10.25285220435834
H         5.23633741334912    8.38034672197137   11.54343653364535
H        -1.22823589707618    4.09414760774538    7.27237625184061
H        -1.53054295541100    4.59882778751370    8.92290756394429
H        -2.28497720645889    5.49090571094079    7.58176392072747
H         2.38998705548819    8.93006103336080    6.44487778590709
H         2.08028237412882    9.44212528862023    8.10327451484759
H         0.82730582518867    9.64875948579877    6.86840263497176
H         6.12655203695608    7.10981016665853    7.01068179097395
H         6.35095436461640    6.45627610825684    5.37973020527982
H         4.93530793762718    7.45197581937573    5.75683725828010
H         4.01012461962891    1.41160257502045    7.46567254907475
H         4.54795594568908    1.54985280104508    5.77597105566717
H         2.83444632959610    1.74622148820186    6.21032009933661

