63
CSD_code = JORLIN | q = 0 | S = 0 | Stoichiometry = C30H22F6N2O2Pd | MND = 4
Pd       11.77107220693647    0.00002888933471    3.00317432173278
C        10.52153636701759    1.20330836879327    0.74048298623875
C         9.35772971837491    1.49052979880633    1.52127721165086
C        10.39047983562841    0.81407852408999   -0.57305005519473
H        11.27024580440500    0.54727034410360   -1.13998639771845
C         8.08397110510231    1.35423050128857    0.91065054816607
C         9.42481850020803    1.87509536216309    2.88433604110604
H        10.39442375296755    2.06116511234871    3.36525034947950
C         8.27668135823766    2.06760573185583    3.60694662289339
H         8.33558005593630    2.35184997512373    4.64756170115081
C         9.12659987318592    0.70730996774509   -1.16637089920753
H         9.05741812846625    0.39531445547534   -2.19746839280428
C         6.92646489235271    1.57774012985850    1.68562160603685
H         5.96176948003563    1.46300584048882    1.21381329065088
C         7.99797327977235    0.97438454399468   -0.44586254928476
H         7.02127221557009    0.87465494365681   -0.89457390462197
C         7.01855699886629    1.91123283914922    3.00707837606702
H         6.12663402013277    2.06059617760849    3.59641473648575
N        11.76921483829018    1.24359549430719    1.38379012281498
C        13.95528439653646    2.10747840465433    1.75265087733251
H        14.77912042447784    2.63919202338830    1.30485344433536
C        12.75666834851180    1.99295736862033    0.99658433791222
C        12.67805203024396    2.85561646200656   -0.23377231266145
H        13.16866737303947    2.35131016629987   -1.06518904155298
H        13.19595281686857    3.79545329217848   -0.06066796710780
H        11.64552639106903    3.05555189973919   -0.50974741606915
C        14.08221982816535    1.70676246095529    3.05965776198269
C        15.42019079895323    2.07692967148648    3.71806288701476
F        16.45182405220307    1.41352077030074    3.16219579949919
F        15.71124533483199    3.38487643149186    3.58078829783481
F        15.44941152541284    1.81421033449617    5.02384721904809
O        13.25523391185027    1.13002208500000    3.82434329588032
C        13.02013364410392   -1.20284948954201    5.26639097793289
C        14.18422930489351   -1.49036686488149    4.48614966108244
C        13.15066471664532   -0.81321765635343    6.57985647936688
H        12.27066568203644   -0.54618617300671    7.14632878698763
C        15.45773763573008   -1.35414327054929    5.09731449819185
C        14.11767278656153   -1.87517528404421    3.12314104627616
H        13.14823446542245   -2.06096584509968    2.64177584457981
C        15.26609261943378   -2.06813559888511    2.40110549099262
H        15.20760192504535   -2.35255285417488    1.36051517112264
C        14.41430171377734   -0.70641432414683    7.17368561123021
H        14.48307972129462   -0.39411106593693    8.20471742746805
C        16.61554477775895   -1.57813016694754    4.32293391337367
H        17.58005047768024   -1.46348284603102    4.79515245429241
C        15.54319687494301   -0.97391377842525    6.45375447029705
H        16.51971505443518   -0.87424979505941    6.90287724008387
C        16.52397670513898   -1.91197072204196    3.00152763225094
H        17.41613323510390   -2.06171890358326    2.41264380836129
N        11.77269083494205   -1.24339123783996    4.62264263206228
C         9.58686464012105   -2.10770881661130    4.25327435402483
H         8.76303242778728   -2.63960967286437    4.70085445508651
C        10.78523439340636   -1.99284780654472    5.00967108298703
C        10.86360946308785   -2.85525293496194    6.24022557860939
H        10.37264227115585   -2.35086045114370    7.07139122252437
H        10.34591744624455   -3.79521106534790    6.06714005203681
H        11.89608428786613   -3.05496749852386    6.51656948080340
C         9.46015114333686   -1.70702895687210    2.94624038589380
C         8.12244874214652   -2.07754513385219    2.28750458123227
F         7.09042890225081   -1.41482804174600    2.84350234964175
F         7.83198597936041   -3.38569154027163    2.42423506458558
F         8.09329414656757   -1.81432143541670    0.98181816422940
O        10.28714431807643   -1.13002914010698    2.18176718328980

