70
CSD_code = JORMEK | q = 0 | S = 0 | Stoichiometry = C34H29F3NOPPd | MND = 4
Pd        6.63374917487852   10.09553107578138    2.36954150860178
P         5.29552682515802    8.98026559676671    3.74280576352240
C         8.40658610440964   12.24810134760147    1.40319949747297
C        10.31823420115465   13.63539148227152    1.91680019251423
H        11.38497226467963   13.79068333740161    1.84755757398695
C         7.30880538327702   15.22437768229883    3.38469912509400
H         7.76309939035718   16.09222584698112    3.84140473387953
C         7.55389444554246   13.18082928932449    2.07812699376219
C         5.96493248705788   15.00299337202194    3.49523086734266
H         5.34109183586237   15.69223765456134    4.04554324278894
C         8.13699107354657   14.32595038985278    2.67935757876724
C         9.52891377685193   14.53661419884124    2.57291022217041
H         9.95825083844677   15.41537876211572    3.03125528126974
C         3.83634241543718    8.26078456339770    2.93458488377699
C         2.87878575291058    9.15985583844898    2.47047824751607
H         3.02110505164787   10.21878338546726    2.65132943214027
C         1.78082017391341    8.70156704204942    1.77123720871858
H         1.04356932794345    9.39983192754538    1.40329859055278
C         3.69270403996885    6.90280503223030    2.68091097087485
H         4.44546430875763    6.20361449117582    3.01773233852466
C         2.58784854007626    6.45010941789356    1.98025411779790
H         2.48009232929053    5.39462293757553    1.77772035701766
C         1.63472926649494    7.34467779965854    1.52570741652522
H         0.78259416378882    6.98688865420608    0.96726774143231
F         5.69104752075072    6.70034427651650    0.15449742037953
C         6.03713427401044    9.03194484675283   -0.12737310374300
C         7.95729051891654   10.58063112195134   -0.24978182704547
C         7.26144186889088    9.39669727983273   -0.64397821816930
H         7.65164420306322    8.84810151202761   -1.48618227333666
C         5.41887563022202    7.73176989662283   -0.67622940495230
C         5.38286451816117   13.88500741320813    2.88056228284803
H         4.31552537221208   13.73456023342677    2.95642372085135
C         9.76240232831355   12.48833163630184    1.33779744185979
H        10.41314311651568   11.75999679319152    0.87705115093771
C         6.15287677323863   12.99361915039247    2.17897829754361
H         5.66196937008951   12.16600584913092    1.65295828134094
F         5.87184170546593    7.35746487111377   -1.88676612971211
O         5.30045012171973    9.63371876152365    0.70233627522054
N         7.83459733884567   11.06451541872889    0.94486380195532
C         4.55391996612333    9.89738135928153    5.12251740160017
C         6.17206750929920    7.53031828391250    4.39967737884821
C         3.52500663748458    9.37749194470082    5.90172003433759
H         3.14559255595729    8.38469425241481    5.70032755963344
C         4.44718799629180   11.96041409364591    6.34950048781593
H         4.79442759435709   12.96957851177916    6.51532287225880
C         7.11812750036555    6.99277110654492    3.52631825794911
H         7.28759485776482    7.48136716765287    2.56122599528839
C         5.00342300345690   11.19563093520704    5.33985308367541
H         5.78449592735786   11.59263272536929    4.69638035010988
C         5.96496651053544    6.94914388459883    5.64271340130713
H         5.25128492323824    7.37845239471917    6.33097051101390
C         2.97823716858538   10.14423255310616    6.91464331552710
H         2.18278504157402    9.74157246784049    7.52474100181924
C         3.44105317269286   11.43134239840122    7.14182971136417
H         3.00641179819848   12.02585585431960    7.93191392450765
C         7.61517968491059    5.28108879428078    5.12571505249128
H         8.17463246680516    4.40265905926627    5.41172678594240
C         6.69175593177879    5.82598325860914    6.00214634922232
H         6.53578994135498    5.37440150799635    6.97107183933309
F         4.08632218655213    7.79835381701918   -0.77512742953544
C         8.79017355081037   11.23911775606265   -1.31818244752342
H         8.93905318046955   12.29571195015241   -1.10583720285769
H         8.30544649254212   11.12904292849201   -2.28540513479638
H         9.76424770566284   10.75406259285019   -1.37497917769742
C         7.83114494184310    5.86576600046179    3.88637921579209
H         8.55789232469495    5.44333264345426    3.20855022666059
C         8.09030474706624   10.28659106535023    3.79816130486046
H         7.87949737740956    9.78186360735284    4.74602566441914
H         8.28960209812276   11.34089404511991    4.01013805122529
H         8.99806737707922    9.84162087556991    3.36925001402768

