51
CSD_code = JORYAS | q = 1 | S = 0 | Stoichiometry = C20H22CoN2O6(1+) | MND = 6
C         4.00623309065634   -1.16252778823662   12.58324609879326
C         4.95336434811190   -1.85046452288614   11.84795045841853
H         5.84743760568315   -2.22253232946233   12.32168675332387
C         4.77058605543799   -2.07187648800103   10.48449827926121
H         5.52522300108212   -2.60985359300485    9.93341313396923
C         3.64190108367577   -1.61345967190316    9.84628560384710
H         3.50742373129743   -1.79114254680908    8.79058101247060
C         2.65093488472542   -0.91287904424787   10.55069417510049
C         2.81278287718502   -0.67013070642902   11.94513001204806
C         1.48985510349640   -0.45633204188088    9.85564923892133
H         1.42904407716757   -0.70686703319986    8.79561975040153
C        -0.63105786721070    0.63128298459941    9.65398025266050
H        -1.42531563264684   -0.10464302884207    9.81832833697693
H        -0.42521606131605    0.72494920762398    8.58382422246371
C        -1.04570070905728    1.95869237551587   10.30997251610572
H        -0.39931104857612    2.76717438453346    9.92777675334736
H        -2.09328758568933    2.21152230528071   10.10449331530527
C         5.17774520234873   -1.38172585937864   14.63980798142344
H         5.23695470514595   -2.47260313820521   14.59541618819201
H         5.00115123361467   -1.07103409253903   15.66769237791932
H         6.11770312831117   -0.94860256847492   14.28672509965014
C         3.22362964614902    3.86180167010439   11.66205877035638
C         3.91821322748177    4.81738864296929   12.37989318565632
H         4.65201781636884    5.43929392422082   11.89307524573430
C         3.68404215357892    4.99114691128386   13.74243273872053
H         4.23958776576408    5.74309207376380   14.27959484701787
C         2.75632963620922    4.21564399755419   14.39767781870074
H         2.58162105383863    4.35683073376109   15.45300262431241
C         2.02405875666407    3.23499741491965   13.71121707109226
C         2.24102053538982    3.03782827338594   12.31719556857275
C         1.06760581993804    2.44946748220883   14.42382085739761
H         0.94392473191466    2.67900166094839   15.48313657597796
C        -0.61257419102888    0.76357875177780   14.66022646213535
H        -1.59400764746422    1.22710654824407   14.51371889501721
H        -0.36863339106896    0.73712986237668   15.72613991783374
C        -0.62164158827246   -0.62779403367268   14.00608992129076
H         0.24279765433312   -1.20571893253049   14.37526800698974
H        -1.54236628384729   -1.18196957743167   14.22693037845359
C         4.26988274500025    4.39002851026922    9.59403203884274
H         3.99833121712453    5.44885897489602    9.61828611035025
H         4.19531141935587    4.02130045093695    8.57288308378896
H         5.29637814423704    4.26622219709382    9.95007333730470
Co        0.48409559756724    0.86705879138659   12.14817304774081
N         0.53301341389774    0.20377855547337   10.39226578018308
N         0.35609543328206    1.52059783590983   13.90384070879675
O         1.96286178652663   -0.04420020947702   12.68735508849854
O        -0.87485105859952    1.85584046287870   11.67845379324909
O         1.61528472978556    2.17562706931059   11.58896598818679
O        -0.51080803382795   -0.48076287183500   12.63546544058325
O         4.07630133935073   -0.89587287496147   13.90089979202097
O         3.36542634690739    3.60925090018462   10.34735534459584

