48
CSD_code = JOSDEC | q = 0 | S = 0 | Stoichiometry = C20H24IN2Rh | MND = 8
C         3.66308185228421    2.34895962723484    7.31154109550928
C         2.97329572015638    0.95931007404194    9.23655242783406
H         3.14769186871560    1.25447407790886   10.27206923652231
H         3.02441038952527   -0.12903130760825    9.16154640376567
H         1.98149384114958    1.30227717079425    8.93746323278726
C         5.29852524478361    1.58255945687387    8.60360301222845
H         5.74176279979038    1.03017070443025    9.40653359289670
C         5.86791838551807    2.37424169198932    7.66251062074556
H         6.89354475035417    2.63638087045021    7.50729314868527
C         4.77048183877684    3.82213672148492    5.88762859196482
C         3.44554980757913    4.11774768816203    5.53602977352573
C         3.24045584976588    5.16986441113797    4.65502209846545
H         2.23740537198425    5.48927625067095    4.40442193532228
C         4.31867452913625    5.84716197633068    4.10330526414480
H         4.13882178522642    6.65999813765858    3.41446279984646
C         5.61850141342244    5.50088119481727    4.43164105098032
H         6.44910432233532    6.03372561134156    3.99367300926956
C         5.85523791321944    4.48869955387042    5.34533969223496
H         6.86304710144924    4.23309668759148    5.63791759925860
C         1.51794357295775    1.45424008854987    4.89587762793648
C         0.84674863763390    0.97864869334016    6.09327536123179
C        -0.07395778624688    1.95945407070909    6.48178286399640
C        -0.04348241964674    3.03010474215127    5.49162144635423
C         0.85042971061777    2.65577749713436    4.46629306499727
C         0.98757091653063    3.26546787034660    3.10575530423608
H         0.52492059057196    4.24840025454375    3.06329978940841
H         0.48385815510006    2.62232703927365    2.38067844816566
H         2.03040471674713    3.35918270813658    2.80656781128203
C         2.39551325846590    0.61058887437140    4.02133924601241
H         3.03080699639911    1.23028214258896    3.39143388004511
H         1.77478474444350   -0.01154598594828    3.37222550268672
H         3.03140982496506   -0.04649771010258    4.61200132629629
C         1.00438769339504   -0.40306422947932    6.65182068656728
H         2.04897174376272   -0.70957813710037    6.67669439727449
H         0.46682297496875   -1.10650627621144    6.01201532051282
H         0.59344040012439   -0.48007245209500    7.65592636595013
C        -1.08381706067385    1.88182580946253    7.58390087015140
H        -1.12677380776998    2.81341841416974    8.14631267473662
H        -0.85721722627298    1.07399700477661    8.27678526453483
H        -2.07284549072418    1.70220419339617    7.15794276837295
C        -1.05148229924618    4.13792690441067    5.44744595317863
H        -1.21564462970276    4.55821427945230    6.43783232249761
H        -2.00483177805083    3.75049662106565    5.08049132005880
H        -0.72976728600029    4.94096409174374    4.78754159191944
I         1.58636065996363    4.71241679240323    8.31472286004733
N         4.84831664515902    2.84029767953850    6.88162233006129
N         3.94454853200246    1.58219650748539    8.38121781873049
Rh        2.01307522537753    2.95650191274550    6.37072119678195

