48
CSD_code = JOSPIQ | q = 0 | S = 0 | Stoichiometry = C23H17N3NiO4 | MND = 4
Ni        4.74279022627401    1.38136629528351    1.65635774582531
O         1.05044132028837   -0.13428822055492    1.94763511929163
O         6.19856140710372    2.88435526810632   -1.68709408771865
O         4.47272147897722    3.17765837850151    5.46106090549053
O         5.80311712074562    1.46584801221250    3.13658780561433
N         3.16258325151274    0.62372264350999    2.50393805394098
N         3.72412729974649    1.31221103215703    0.21426132042724
N         6.11676498996949    2.02243010890374    0.47950337897252
C         2.13621403138153    0.34558555405298    1.66835925750330
C         2.49787110588020    0.80083931973546    0.27469429852172
C         1.69582599689941    0.74928817663674   -0.85809071329393
C         2.19896480835996    1.25132261296274   -2.04948965659136
C         3.47998169085205    1.78890424415498   -2.08703170439967
C         4.22612717966931    1.79696695425935   -0.91793302430547
C         5.63986702663813    2.30215973082074   -0.77647933803488
C         3.06574233275988    0.26805034337671    3.85294878117791
C         2.70146326327362   -1.03600261109816    4.19751007571178
C         2.64776141586647   -1.43745452066133    5.51599292209047
C         2.99066117033757   -0.55347111247030    6.52882453530056
C         3.36492175147711    0.73336748756920    6.20455212263324
C         3.38364008063182    1.17682301707209    4.88097206767253
C         3.74807691477262    2.59883392003365    4.67712067264607
C         3.13829097325000    3.33196833717185    3.50380318878913
C         7.44511149655979    2.16924095281855    0.80946490211868
C         8.43707709711153    2.31092035555836   -0.17964880262525
C         9.76338768796484    2.46434692176738    0.13851082517866
C        10.17511743524738    2.48194302303187    1.46842728425213
C         9.23990519744707    2.32226662599815    2.45839770899255
C         7.87249250701356    2.14992100941361    2.17302105696365
C         6.95815278926640    1.90740937194189    3.27037043659203
C         7.40619660994964    2.16488944106978    4.68273850676515
H         0.70728158504335    0.32538476197383   -0.77946137015673
H         1.59768746174938    1.22621639046396   -2.94581829936794
H         3.91027125258556    2.19487606723015   -2.98878136328889
H         2.45584909354098   -1.72887488560021    3.40769846563684
H         2.34956452982448   -2.44750637843186    5.75545976497801
H         2.96478248927506   -0.86871182911755    7.56097784444620
H         3.63172212948511    1.44062881464487    6.97657361795843
H         2.12399213453943    2.99321320499464    3.31060483537279
H         3.15428149667660    4.40153219820238    3.70447434255125
H         3.75258958300539    3.14658435209838    2.59993990300700
H         8.14428321558658    2.30506673968139   -1.21556283097671
H        10.48936212508787    2.56976508555498   -0.65372077055848
H        11.21771501546625    2.60594893245206    1.71664548770517
H         9.56799846171411    2.29797800950178    3.48434981650172
H         6.52544504630629    2.21412652679916    5.32000981337949
H         8.03846162343864    1.34770855957928    5.02664921031096
H         7.95545509943837    3.09844077659879    4.75967588699571

