71
CSD_code = JOSSAL | q = 0 | S = 0 | Stoichiometry = C30H32O6P2Ru | MND = 6
Ru       -1.47952014822027   -0.59084874905944   -2.68697345890603
P        -2.40937713304682   -2.42545605112230   -1.58999349144755
P        -0.14614739845296    1.23616593678062   -3.26829243947593
C        -1.34499364404620   -3.90384348490640   -1.66533429902155
C        -2.74341571007633   -2.32624001896229    0.20325672171722
C        -4.02684071952558   -2.95676645620453   -2.22871062478667
C        -4.25440333235125   -4.17503971828628   -2.85442109839048
C        -5.51782365857323   -4.47981443341481   -3.33355463199134
C        -6.55502497977185   -3.57428854568575   -3.19401159226382
C        -6.33018475505830   -2.35312924908374   -2.57663422574435
C        -5.07123562954919   -2.04338073615350   -2.10076934611911
C        -0.98829833316408    2.82830366648492   -3.57005614996738
C         1.15778688868528    1.74843129035889   -2.10447368846157
C         0.71583219403070    0.95380712687846   -4.84536487731087
C         2.09546413857158    0.86143584561316   -4.97116276856244
C         2.66044828008921    0.60424292315572   -6.20965880746512
C         1.85713541870086    0.43686064501534   -7.32377314726924
C         0.47785369413692    0.51387570890149   -7.20112897149354
C        -0.08904522559519    0.76268273020515   -5.96719294990020
C         0.20566271076851   -0.73950965535836   -0.32653195049745
C        -0.85699026487488    0.28379796461677    0.01044876019433
C        -0.83375780787874    0.92605081496975    1.32993360469688
C         0.36705407026465    1.37517637386499    1.87395675178307
C         0.38846043572271    1.99984063235967    3.10552744430104
C        -0.77924000118879    2.19215090068844    3.83283453161378
C        -1.97452007437040    1.73241249398498    3.29426627414978
C        -2.00368041795145    1.10743777422523    2.06342358478067
C        -0.74782789805933    2.85099114319830    5.17880731849173
C        -1.77321006635177    0.50344443783720   -0.94870863695430
C        -2.82234188971037    1.51569539961585   -0.79538954072211
C        -5.14602215286670    1.84755758764357   -0.60288629057953
C        -3.00200162054611    0.03747932079806   -3.52620106192165
C        -0.92834772403584   -1.65628897765987   -4.12646003697862
O         0.13662064397045   -1.22008449751776   -1.52368155566184
O         1.05166598557797   -1.09697208934809    0.47790919753191
O        -2.66625037166852    2.71626812448926   -0.84539480260730
O        -4.04969315229899    0.94905696861656   -0.66079590814042
O        -3.94949232414143    0.45327496023772   -4.02572862163746
O        -0.54589069879214   -2.31665017104302   -4.97710797373657
H        -1.16331683279264   -4.18598160904752   -2.70238785589417
H        -1.80625698298896   -4.72870207228121   -1.12050592846780
H        -0.39128576051313   -3.64151911484586   -1.20404687975747
H        -3.42005169217236   -1.49767409293916    0.40576599978637
H        -1.80527980373464   -2.16251357249772    0.73466403492487
H        -3.19590357801998   -3.26466166413206    0.52878673602792
H        -3.45220493250763   -4.88778570742376   -2.97391234687239
H        -5.69088114004821   -5.42870040724643   -3.81998578586814
H        -7.53756374151835   -3.81672521172711   -3.57080259800696
H        -7.13748464222125   -1.64311389464707   -2.47386279322170
H        -4.87761675881004   -1.08864142102106   -1.62917703940962
H        -1.74437546779468    2.71134919308858   -4.34506795161082
H        -0.25739955172314    3.57577364256771   -3.87968414275429
H        -1.47229475002291    3.14235814222506   -2.64351854781379
H         1.77213037456978    0.89458690397235   -1.81841260895475
H         0.67315792285961    2.15361225062474   -1.21466947346337
H         1.77032969308092    2.52158952027130   -2.57150008551692
H         2.73265891799137    0.97634319008741   -4.10745071826390
H         3.73408528464429    0.53017931405164   -6.30199450534650
H         2.30275483291377    0.23591517203504   -8.28650474020933
H        -0.15195994417778    0.37058136633162   -8.06664362228949
H        -1.16767629213096    0.79924691211317   -5.85533616591637
H         1.28637322543554    1.22950776494999    1.32855413883454
H         1.32928812426749    2.34653243302457    3.50999500683549
H        -2.89400998080888    1.86427683932161    3.84846027908650
H        -2.94298985579821    0.74192546571545    1.67325956930754
H        -1.67949665497586    3.37710914323436    5.37589362823344
H         0.07766806664832    3.55604979983844    5.24625195295999
H        -0.61347110728389    2.09977647756137    5.95838052375590
H        -6.00155182553934    1.27121710299604   -0.25705831130525
H        -5.34342276594832    2.26283208059139   -1.59398883144464
H        -4.92755970946018    2.66562811669828    0.08692782171486

