122
CSD_code = JOTGAD | q = 0 | S = 0 | Stoichiometry = C60H56Cl2O2STi | MND = 5
Ti        9.17962148852807   10.50598005660849    6.03648989211777
S         6.66867189858674    9.04475147422848    5.76525873298153
Cl       10.90206704992472   11.82535064304176    6.28833996631186
Cl        8.54408649437084   10.61549717417558    8.13407919484308
O         9.63951544087313    8.88986260278105    6.01149098724249
C         9.59907647544996    7.56636644940937    5.96803983514686
C         6.48517778857557   12.10648268435709    1.75380597027595
H         6.29319643064696   13.01727982881300    1.21289374769682
C         7.26013331655504   12.19576355722078    2.90240941812455
C        10.61984630666833    5.44649240888777    5.47202701936268
H        11.47326834630338    4.89357533533064    5.11264134901115
C         5.94416052415010   10.91057271379288    1.30715651742730
C         7.80009586490611   13.54818034620980    3.35300608388964
C         7.97938231757690   13.63697499185291    4.86600491201138
C         9.08549142611707   13.68759418047524    2.54845345856593
C        10.70954944173946    6.82429941338407    5.52252123891155
C         6.16831023581903    9.77729475619680    2.08302466693600
H         5.71383690969368    8.83531047958215    1.81550662605185
C        10.29071248593200   13.18879147655291    3.02990621946715
H        10.34009591869759   12.74118238987217    4.01336677826404
C         6.98147124375246    9.80993320244284    3.19957726888579
O         8.44906956573575   11.01942271668052    4.60507969518008
C         8.42794094058634    6.88838577988514    6.34077616640395
C         7.24177367534581    7.64887803797221    6.83253579486750
H         7.46457505203572    8.15098271655841    7.78065954160494
H         6.38722433692662    6.98381449124191    6.96425752286257
C         7.59800391545477   11.01739246289775    3.58754684037759
C        10.94264238904209    9.48155699055278    3.43514826399469
H        11.29496454231533   10.23947204455424    4.12733832749900
C        11.22346939707100    8.13606101376072    3.64887507626953
C         8.38092820291985    5.50212873575418    6.26935413615406
H         7.46167938756708    5.01921941891854    6.55850991597885
C         8.96814128426284   14.43420405803346    5.43139784965738
H         9.67346007297024   14.95342109692314    4.79964513963585
C         9.05089114430333   14.20805094123762    1.25793802503139
H         8.12151271767393   14.57719697493846    0.84984685056918
C         7.04671648567138   13.03464147849114    5.71291365971364
H         6.22109837235855   12.46702413150235    5.29761432503895
C         7.17771690652449    8.59132890594161    4.04834962876589
H         8.22522295026895    8.27893992899512    4.06810984587376
H         6.54829415533610    7.76686702400972    3.71164375632932
C        10.23615151622318    9.87525245143353    2.30501934670718
H        10.04478187078727   10.92441362270167    2.13714450771276
C         5.10466638956348   10.80599514911007    0.04399599083127
C        10.19890638303689   14.27184157709871    0.48938237127946
H        10.15203951085269   14.68752507372329   -0.50680764463276
C         5.44919526586513   14.50654305256772    3.18412075420618
H         5.04732258030220   13.51783485235161    3.34835714626137
C        12.43486199574499    8.66982566695454    5.84881998483549
C        11.87681257222065    7.59713292940939    4.92122627789077
C        13.08768157257532    6.71869877168940    4.64558564024070
C         9.47175065323610    4.75586876900101    5.85224236684422
C        13.62768723330514    5.97678241422255    5.69322014166363
H        13.15482397487865    6.00860724995053    6.66411489143371
C        10.05924281304600    7.59944377316210    1.59708614477810
H         9.71735732948576    6.85817117789835    0.88967466500932
C        13.73346300825251    6.70366476111219    3.41754194439502
H        13.35219064009934    7.29368380666002    2.59719848649058
C        11.44156821675179   13.25961132470606    2.26145782010143
H        12.36789647989807   12.87690566739316    2.66356941563340
C         7.14424008521072   13.17543001918609    7.08751639989332
H         6.40965853844424   12.70505462252769    7.72736588762049
C        10.76796471404319    7.20424588518778    2.71480604066736
H        10.96727749201041    6.15421557300071    2.87372941367606
C         7.30685887655880   15.98957569271342    2.94805671056430
H         8.37178675669879   16.16629231721965    2.92634877813021
C        12.14224258067202    8.70324720702345    7.20833591697432
H        11.46093142276307    7.98246740393609    7.64395064953115
C         8.16625114303334   13.93329910479250    7.64013563582747
H         8.24622563866672   14.03447982587583    8.71248478465813
C         6.82465689421851   14.69528866767543    3.11115372934770
C         9.46140318653264    3.23778070016829    5.76990857003750
C        15.38345516366800    5.17905015233020    4.26864539869452
H        16.26868311254524    4.57875124498089    4.11999924744396
C        13.37841029481222    9.56357237535771    5.34836756506359
H        13.64943548814901    9.52039763422887    4.30256353236824
C        13.98056359297131   10.49313484801034    6.17471025281870
H        14.70334730472028   11.18385305449858    5.76645066675619
C        14.87129901372240    5.93581162316347    3.23081749364821
H        15.35981209097434    5.93371754744771    2.26731484281185
C         9.06876124957972   14.56912910354129    6.80618475148514
H         9.85763168517157   15.17734704528632    7.22342973488391
C         4.98344595198128   12.14212269352720   -0.69352156613058
H         5.96213815303857   12.51947868317700   -0.98024557535010
H         4.47989607712860   12.88548126591619   -0.08002351977951
H         4.39761878620236   12.00286047243110   -1.59975784106981
C        14.75918688362663    5.20672836884357    5.50508057689613
H        15.15916196034249    4.63120531266192    6.32710075110809
C         5.76189406895730    9.79386289159439   -0.90487255293364
H         5.18086024171384    9.70581590213263   -1.82033252714037
H         5.83140820681513    8.81021697049886   -0.44910795146165
H         6.76621571013391   10.12227306876823   -1.16410176031255
C         3.69274816164432   10.33227009071830    0.41548878905410
H         3.07234297829111   10.26940787352333   -0.47585456925270
H         3.23214019212980   11.03336614709652    1.10789424067826
H         3.71394707456291    9.35335947865048    0.88573162484692
C        11.40272336409892   13.80659837253340    0.99135628174354
H        12.30001265610634   13.86287637135650    0.39307591746575
C         5.07088317425101   16.85391283539674    2.84948341213351
H         4.39229823816413   17.68668624667198    2.73941379120395
C        12.74186828125847    9.64157178380136    8.03379858796874
H        12.49134746911009    9.66154819005923    9.08487944978649
C         9.78491120379732    8.94141215525779    1.39034234489887
H         9.22351602595041    9.25888390100510    0.52459607266159
C         4.58093792082893   15.57474857264211    3.04540415407804
H         3.51505181864885   15.40569186560002    3.09625431903975
C         6.43919680464924   17.05750440782001    2.81032741957564
H         6.83519636527986   18.05354822305793    2.67664596908462
C         9.70804880811037    2.81411753620032    4.31488814326088
H        10.67984510765719    3.14978861419899    3.96335782682685
H         8.94390178489487    3.23626338675462    3.66535763460155
H         9.67305623728338    1.73022486940406    4.23030098738180
C         8.13091841635928    2.63362571483103    6.22609158866137
H         8.18294554749491    1.54921983679750    6.15578501446389
H         7.31096527810903    2.97095412355712    5.59646417986915
H         7.91817451338712    2.89292438280641    7.26039960708862
C        10.57502379184555    2.68201955578831    6.66836511922717
H        10.42070024044784    2.99960386884666    7.69734144946138
H        11.55362996387329    3.02801485283153    6.34723873474598
H        10.57151044936124    1.59461887003054    6.63871372949005
C        13.65868934206458   10.54061508610565    7.52017803822069
H        14.12155351981817   11.27280830374144    8.16439560799382

