71
CSD_code = JOTJOR | q = 0 | S = 0 | Stoichiometry = C32H34Cl2P2Ru | MND = 8
Ru        0.27162935333967    3.65222592522238    1.98361584990434
Cl        0.49385611900603    6.03047058280396    1.85403461937993
Cl       -1.95917662572823    3.79334191588001    2.83492941143651
P        -1.15037824154557    3.73787930622532    0.13226389689967
P         1.04835025074552    4.37307653990198    4.06450509771499
C         0.10281535010432    2.75452253655428   -2.21967161398960
C         0.77923278232843    2.92859284110763   -3.41414765497468
C         1.02730386960450    4.20297483298561   -3.89511771256989
C         0.60736258085753    5.30762834078521   -3.17114552023388
C        -0.07193763701677    5.13649209275463   -1.98047755806609
C        -0.35052194601823    3.85693125124731   -1.50438362110637
C        -3.29750353569542    4.76882655640273   -1.22863180164509
C        -4.32202453754993    5.65411156773836   -1.49919590026672
C        -4.51977240988751    6.75713643101579   -0.68273689697215
C        -3.68443907743123    6.97321167272847    0.39850397080759
C        -2.65652590863138    6.08776259510769    0.67555779821296
C        -2.46286772832482    4.97708451522629   -0.13132887955674
C        -2.11094411757821    2.15378108886479    0.06772310357818
C        -1.57699875909062    1.21553476708499    1.15616379557729
C        -0.13485463733482    1.51502767184964    1.49910166373825
C         0.28532928472233    1.61784257221157    2.81940962871244
C         0.01964634711778    2.89169056560270    6.14292636908156
C        -0.00515847576428    1.89180169161114    7.09572017222072
C         1.10566771681728    1.08434705901788    7.28265130111928
C         2.23319217350817    1.27126713441977    6.50125513659290
C         2.25888177737193    2.26909172082935    5.54287606558991
C         1.16093331234456    3.10423048392908    5.37214444209359
C        -0.88773164025423    6.33903853257963    4.75542387579267
C        -1.37065752346065    7.34388015048976    5.57674471104845
C        -0.66907936076127    7.71836053759857    6.70861274060721
C         0.51898901714323    7.07910181435999    7.02830450099387
C         1.00441387523705    6.07541345361145    6.21377785850096
C         0.30586510549329    5.70545586340955    5.06519154546436
C         2.78506464086382    4.98534734590473    3.85335442579215
C         3.23223251567424    4.69652687525693    2.41563918157726
C         2.49032019605525    3.52046767341038    1.82086661580945
C         1.93655734565777    3.58621662681214    0.54822714091653
H        -0.06724627659555    1.75296066456133   -1.84770935435115
H         1.11845435348489    2.06559287063390   -3.96942938913480
H         1.55519201274224    4.33481661760228   -4.82810001916356
H         0.81329994764127    6.30355025908041   -3.53517228629425
H        -0.38940474956017    5.99413779905234   -1.40181339018019
H        -3.13530375292868    3.91427695629648   -1.87293304938407
H        -4.96759714037256    5.48571918993893   -2.34926419897818
H        -5.32294865631260    7.44766963317214   -0.89524340389236
H        -3.83023494267204    7.83568426295328    1.03205110213445
H        -2.00138366260701    6.26580515907250    1.51371850999065
H        -2.01029487104900    1.71679555298357   -0.92854885625520
H        -3.16630407865683    2.38311044917780    0.23612329026150
H        -1.64645315898903    0.17457649844327    0.82388654603398
H        -2.18433833622227    1.32161602268143    2.05651023181391
H         0.57913990047548    1.14821830337223    0.75892024130806
H        -0.45507358742534    1.51744905573431    3.60940809873697
H         1.27751141944342    1.27935686059172    3.10154204022011
H        -0.84912918925478    3.51619018070104    5.98003490440130
H        -0.89253780861688    1.73827268115834    7.69219055682629
H         1.08953959150045    0.30446688569582    8.02966794352589
H         3.09551996353892    0.63359145602336    6.63515637450738
H         3.14023119542828    2.39060684377458    4.92737639874244
H        -1.44354355433726    6.04318927668400    3.87963644326804
H        -2.30058047583375    7.83408020004191    5.32886901652630
H        -1.04645215817705    8.50439153698958    7.34645093838590
H         1.06635196758768    7.36334093342743    7.91562637817650
H         1.92561299681141    5.56779550857423    6.46954635809806
H         3.42861650341180    4.49089282452037    4.58474672658207
H         2.79872776974408    6.05938272133816    4.05599913101866
H         4.30502566152020    4.47895224464752    2.39120699285027
H         3.05433415776522    5.57726186953065    1.79644296228461
H         2.84294118054455    2.55111440956392    2.17896349821202
H         2.01153106247873    4.52029097366600   -0.00344351614507
H         1.92082526354220    2.70325016579021   -0.08320497989058

