122
CSD_code = JOTPUF | q = 0 | S = 0 | Stoichiometry = C45H68FeN6Si2 | MND = 6
Fe        4.53726757116837    3.75803115455958    3.70866405067217
H         5.68466663232513    3.32642147885518    2.93607478313627
H         3.70891602842891    4.33040979826422    4.73787225444740
H         3.52139741021510    2.72046609093401    3.81690391442145
N         4.83028559499559    2.21888196379943    6.26075619757506
N         6.74657868218110    2.54474419433927    5.35507755457604
N         5.85185902741467    6.05912862110665    5.06917287015110
N         6.36994834394994    5.99339519635799    2.98658464796135
N         1.44822738789780    2.04693122328038    1.45247700434134
N         2.13935660580311    3.34537809487563   -0.11366422500377
Si        3.22360982045606    5.27705975281203    2.73182369211404
Si        4.29864749902183    2.69901577155037    1.78207501957610
H         3.30159056759374    5.78318141936612    1.28953169334530
H         5.03761493441629    2.98677210603470    0.50217618106414
C         5.41829388743893    2.77387192864862    5.16533185987492
C         5.66468327757133    5.32373228246809    3.93967096106199
C         2.54510263197005    2.62660505798683    0.94514154826964
C         5.76686589402404    1.66448664887559    7.11115461349948
C         6.97851683662736    1.86291533426695    6.53567401285204
C         5.42548364008164    1.03198035012601    8.41408284288306
H         6.33470414624491    0.81335404723674    8.96771375267321
H         4.87818615981811    0.09986231456718    8.27598566150930
H         4.81089750193872    1.69853733232119    9.01878180169614
C         8.33887578697852    1.49826658496950    7.01774798150995
H         8.26170203691464    0.90550511683643    7.92514712741619
H         8.92809767197492    2.38909253762338    7.24321675755327
H         8.87872779216055    0.91466911187625    6.27352905301980
C         3.41691743313215    2.17407391340901    6.51809101463067
H         2.97232609935396    2.95045948325315    5.89446852510235
H         3.23327968471861    2.40682272764310    7.57141674890144
C         2.80954214451276    0.82114464113055    6.15788646718245
H         3.06231911073223    0.57392273480308    5.13048073034899
H         1.72756641196949    0.86619602273158    6.25239012829146
H         3.18088912549872    0.02942836688727    6.80442148225952
C         7.80494088712306    2.92906280030351    4.46237396966225
H         8.68774690780017    3.19283915197897    5.05270223917279
H         7.46197606468155    3.81214340255121    3.92347158265768
C         8.14338598337069    1.81731875912492    3.47212783717315
H         8.40729763277700    0.89777331668690    3.98964278590978
H         8.98040648275818    2.11602948766335    2.84585709999598
H         7.27834725825386    1.61773853622405    2.84383483569942
C         6.61365535690586    7.18304239086891    4.81407700193807
C         6.94919775211490    7.13529600252375    3.50253339435354
C         6.92219767349011    8.23385535857429    5.82130823979836
H         7.78492520416839    7.96833466992147    6.43468653187333
H         6.06838047167181    8.39748965552329    6.47484231213008
H         7.14159689521051    9.16992164525515    5.31401827360454
C         7.74586225848407    8.09293022044276    2.68850111286145
H         8.21011594416903    8.82909504254826    3.33886517061024
H         7.10794033519749    8.61956130624404    1.97745310838815
H         8.53017271140418    7.58355631480151    2.13060083077507
C         5.31868505104986    5.75681702230998    6.36856167048038
H         4.60605179118863    4.94622370163840    6.21724896960638
H         4.77794987806385    6.62977377947045    6.74697684092577
C         6.39211569653244    5.32677552732917    7.36485440047263
H         6.98252418721399    4.51648873978684    6.94868038471288
H         5.91997727378510    4.97640642569645    8.27943271853293
H         7.05873841984665    6.14718349938766    7.61705910654767
C         6.44281979764490    5.65375588695730    1.59339666863430
H         6.44881536921426    6.58179234037903    1.01609406815123
H         5.54400015027692    5.09127296802053    1.35446937412611
C         7.66876027472818    4.81394495829042    1.24161146845334
H         8.57477438398790    5.23723217930885    1.67026998823179
H         7.78327608155056    4.76476722851203    0.16200314117561
H         7.53664679462425    3.80568611315328    1.61929256210825
C         0.34189564850113    2.39202905487055    0.71258566579753
C         0.77937365219613    3.21467268462378   -0.28045657595423
C        -1.02934097353784    1.91818020109065    1.02921189116015
H        -1.73075057929177    2.29388457767947    0.29042030167402
H        -1.33695208531521    2.28650475552430    2.00709981066483
H        -1.08062150507743    0.83059265287446    1.03501045930124
C         0.01995400636499    3.90807292056547   -1.35287901218944
H        -1.02316970118193    3.60879250137268   -1.31710368402184
H         0.41492096353583    3.66898725639802   -2.33931742322607
H         0.06732911408031    4.98739908040849   -1.21207498225526
C         1.40836040140120    1.18701873855323    2.60546922770932
H         0.48765152669097    1.39725867868358    3.15435233709625
H         2.25851716571514    1.45928631306678    3.23280804145617
C         1.47594720149265   -0.28970970591998    2.22992341750021
H         0.63642155419648   -0.57967274660797    1.60172241770965
H         1.45539807221396   -0.89374419672897    3.13282514561606
H         2.39880238206696   -0.49879068197250    1.69643798860610
C         2.98229340624365    4.08025649560699   -1.02132856469899
H         3.81015329741327    4.50138016386703   -0.45508327971417
H         2.39778400385023    4.90023373057546   -1.44177068779442
C         3.51112705002659    3.17859076103157   -2.13352063528893
H         4.14987044429921    2.40999471947375   -1.70736483146675
H         4.09310699030943    3.76428089732196   -2.83945701875022
H         2.69483052847553    2.69738115823614   -2.66769460893002
C         3.30900003454790    7.00018342428127    3.54871780332556
C         2.77296942174515    7.20556527113218    4.81220475768140
H         2.24929503665288    6.38960838307760    5.29015354304025
C         2.90034872915128    8.41745449039334    5.46538968101684
H         2.47119326189712    8.55356919356963    6.45060955055782
C         3.57913206864104    9.46222938990495    4.85967563126510
H         3.68791928468375   10.41105822521618    5.36822348391742
C         4.10930010128354    9.28322472503196    3.59381032180524
H         4.63299155690160   10.09770436092001    3.10928971963268
C         3.96714196963079    8.06597167370280    2.95254109424355
H         4.37208185863394    7.93408871449711    1.95816789866251
C         1.33177348140081    5.02477912477791    2.76938583788395
C         0.74678680467103    4.27033923383134    3.77472879391605
H         1.39548015427627    3.78348618608229    4.48688768192719
C        -0.62630015134508    4.13739887319809    3.87867526291723
H        -1.05992264120109    3.55313384712689    4.68169409870064
C        -1.45192696374447    4.76175095977730    2.95763488949486
H        -2.52735686676200    4.66934809211044    3.03579315264409
C        -0.88823175278060    5.51090565726905    1.93860171134144
H        -1.52781709075374    6.00433900694838    1.21806133395861
C         0.48669456210538    5.63910798861943    1.85638115724533
H         0.92406620661885    6.24291292543727    1.07301690798154
C         4.67223416600062    0.82320971705933    1.80909502947340
C         5.05685521407747    0.22338748406561    2.99793427846227
H         5.10193169109773    0.84873648596296    3.87732051237048
C         5.37684823626421   -1.12050597662099    3.06626377776981
H         5.67346948141255   -1.56304249171897    4.00812507752787
C         5.32064894196652   -1.90041643221426    1.92334013095003
H         5.57124844600796   -2.95136346349913    1.96562985141648
C         4.94356859054299   -1.32250448259429    0.72261001090315
H         4.89930798049075   -1.92470167753009   -0.17526141805850
C         4.62460523021184    0.02400558006392    0.67382964505099
H         4.32883604216725    0.46610366431528   -0.26855300684015

