77
CSD_code = JOTPIT | q = 0 | S = 0 | Stoichiometry = C29H42FeN2OSi2 | MND = 5
Fe        3.73694632525562    4.88864333075814   12.56858390706495
N         4.62315906813961    7.24215717253716   11.05578176058762
N         5.03194772585986    7.44672195772894   13.15919863571371
O         3.94771215894314    2.08670561865779   14.40641292440148
Si        4.31678754702406    1.66828979248265   12.86167590563787
Si        2.61756775273400    2.89219475327540   14.93582463144287
C         4.50893652011256    6.59310333474593   12.24369364703323
C         4.79543076462819    3.94272104642080   11.17385736859812
H         4.66490034584086    4.29549297675629   10.16147904735852
H         5.83612021360579    3.78939186385559   11.41976321834594
C         3.83825643734341    3.06741417659842   11.72393143036233
H         2.95761498745707    2.88943197881628   11.11200562977416
C         2.51029271808129    5.59328132208384   13.96608134189972
H         2.98384563357402    5.84755524323564   14.90124074889247
H         1.82054895172051    6.36143103562990   13.63903581746035
C         2.21368604029478    4.24055647613660   13.71237524302534
H         1.34548820668642    4.05305380533506   13.08649036583153
C         5.20946195445780    8.47586839137438   11.23425904909229
H         5.35614875489092    9.16889096530513   10.43347854264485
C         5.46671704181096    8.60283110155905   12.55068717101404
H         5.95426180757088    9.39170733020766   13.08222403933260
C         4.23096201484986    6.74639503926731    9.79974596329981
C         5.08723230169840    6.83682969263613    8.69993284944893
C         4.63614749626053    6.38970078158354    7.46407920610816
H         5.29890593300037    6.46394453120213    6.61371263050363
C         3.37814557674659    5.83566129275253    7.29911859801882
C         2.56869074145151    5.69920141262733    8.41906670707259
H         1.59957115371302    5.23313856517572    8.31608279748633
C         2.97572499446692    6.13806743879927    9.66764621343013
C         2.11581570085854    5.91909679954639   10.86302370633875
H         1.10514471461759    5.64709106265141   10.56650271543246
H         2.07545531366348    6.80597836933508   11.48950985470520
H         2.51498377433948    5.07200973148068   11.45935906967439
C         2.89891884519273    5.37962605476306    5.95519507452565
H         3.72191446388990    5.31818567700777    5.24770891942357
H         2.16189342408589    6.08123489701134    5.56354137619305
H         2.42362368591619    4.40354986525074    6.02862977606156
C         6.49876514258107    7.33764736153659    8.80665883276243
H         7.13070824285782    6.78934651381360    8.11128781239962
H         6.89289060496738    7.20265196341474    9.81059366056900
H         6.56469771618911    8.39415846937961    8.54587389578417
C         5.14504628404339    7.20370319172085   14.53895581409491
C         5.58628613318119    5.94672410167170   14.97192947111459
C         5.80163571386078    5.74154203225834   16.32454338037838
H         6.16914085123568    4.78167620326772   16.65644926660727
C         5.54931027020729    6.73430981248092   17.26316097069467
C         5.03510125978988    7.93967295229851   16.81809514803116
H         4.78300634386412    8.70727701195280   17.53586693885854
C         4.81951552095927    8.19374245892931   15.46867217160877
C         4.18589184852643    9.49950374169329   15.08238478664774
H         4.93052430644382   10.29058726546879   14.99002315740023
H         3.48317025713590    9.80207488908887   15.85595611814350
H         3.64778529371510    9.41662370202930   14.14161220106078
C         5.78166564070284    6.47202980984227   18.71935624948068
H         5.08822896428235    5.71069287758010   19.07559535032372
H         5.63657808852328    7.37431102266318   19.30776396180148
H         6.79274436349233    6.10343701884683   18.88395631165923
C         5.76997625486684    4.82925727991458   14.00665300184460
H         4.78105316833562    4.40600397531361   13.72498362571493
H         6.30471729617509    4.00765955082029   14.47585739870457
H         6.30756906361834    5.15052882048624   13.11966525122232
C         6.17772918207910    1.27219315809133   12.88446472475529
H         6.78542961482403    2.15673727958373   13.03820392439404
H         6.47208691599996    0.83320176407141   11.93750775766996
H         6.41945115787787    0.56324963913577   13.66956893338136
C         3.34631651629615    0.09503781570788   12.40507481601723
H         3.46321019932670   -0.66958446169375   13.16603911707720
H         3.68185905457794   -0.32058201953916   11.46097809068533
H         2.28626490941965    0.30665594596032   12.31498129237297
C         3.06120139317367    3.51695411909607   16.67444887377871
H         3.52014346864719    2.73720646813423   17.27278534834915
H         2.16614558204924    3.84987509069231   17.18792309101557
H         3.74693478672701    4.35474018150256   16.63394732258640
C         1.16708240925730    1.66340583133890   15.04921889263307
H         0.84568956493132    1.35136039813338   14.06133908433118
H         0.31174475682883    2.10189126234269   15.55199030800607
H         1.45354076762119    0.77134061637065   15.59639776274342

