108
CSD_code = JOTQIU | q = 0 | S = 0 | Stoichiometry = C45H58FeN4 | MND = 3
Fe        6.13654171216621    4.37937363608357   15.30403456307810
N         4.93003092435701    4.25472632289535   14.28120729047747
N         5.71965249211880    7.72943644197172   14.32380911123116
C         6.13628864272744    6.89579199155002   15.30413507364186
C         5.86988011203017    9.04722882184376   14.68343578426495
H         5.60509915600579    9.85367683049849   14.03113358293210
C         5.19083342626560    7.32293200108461   13.07315593577898
C         6.03249198960578    6.72482812408212   12.13592610791585
C         5.51066017255348    6.38324233497356   10.89858908663691
H         6.16326734515605    5.93951607045217   10.16064763401744
C         4.17523014521224    6.59489038951618   10.59076469890990
C         3.35662395138794    7.17536594515479   11.54758912516858
H         2.31184245346561    7.33465016517458   11.32334111156553
C         3.84639213366729    7.55672486155323   12.78649931867975
C         2.94508637209896    8.21787367054912   13.78565354899790
H         1.90625639896069    7.99712440510098   13.55624195144055
H         3.07219474596799    9.30099887808663   13.76000768448739
H         3.16258911604783    7.87518747722633   14.79479043361953
C         3.61221016270194    6.18655942045819    9.26461948466664
H         3.07081557434686    5.24702086160687    9.37532475941916
H         4.40113857099583    6.04715975890136    8.52920483450634
H         2.91296473983052    6.93347766210081    8.89442208316052
C         7.46539362990359    6.44629019883273   12.47310916666094
H         7.96489966757345    7.34479018657865   12.83521064746231
H         8.00023918573534    6.07364474763080   11.60333973931332
H         7.50540560704304    5.69210612063291   13.27017273571296
C         3.89300189175570    4.00423790194372   13.47194361747544
C         4.10329766612180    3.41915370787418   12.19686379057233
C         3.01378950433438    3.17648056784254   11.38426860070231
H         3.15376133731937    2.72113644829638   10.41534847382978
C         1.72951546302439    3.49459119341324   11.79339015258207
H         0.89083033273931    3.30482512357648   11.13874739303333
C         1.51670174604019    4.03021938808920   13.05276176210356
H         0.50503178389867    4.24014478249433   13.36513234665730
C         2.57138952777014    4.28518729063509   13.90551103952746
C         2.38511123450391    4.80479550143801   15.31279668289128
H         3.17540326307215    5.54810279743618   15.48487762549948
C         1.02992171195482    5.46015353259222   15.56414136534575
H         0.80954146441546    6.20660638972190   14.80529695077587
H         1.03290585433486    5.94927840088821   16.53688057051707
H         0.23485538747903    4.71758633017353   15.56581620865816
C         2.60116673378426    3.66210365165988   16.31521994671189
H         1.91663797051422    2.84225345875842   16.10597473990265
H         2.42781817193271    4.01126858432616   17.33151647679328
H         3.62837007413814    3.29060011584956   16.24566706913450
C         5.51221126038021    3.02605160883222   11.81819356996984
H         6.17366887085103    3.83783160093746   12.14995833747237
C         5.91855506730963    1.76234643724621   12.58883620133580
H         5.90409554697101    1.95948330440767   13.66421382492993
H         6.92415449153199    1.45437465278375   12.30827870157894
H         5.22989591311438    0.94755295651580   12.37267336516204
C         5.71511305536545    2.80715307687117   10.32143249834617
H         5.20894564576245    1.90335577908172    9.98858682825901
H         6.77641913075009    2.69258762147905   10.10758689174091
H         5.33598197520936    3.65096102350495    9.75112966628174
N         6.55286582163555    7.72907553632628   16.28476431140960
C         6.40253534545374    9.04700202113868   15.92567067011078
H         6.66728069664843    9.85319676360709   16.57830590698116
C         7.08182434415683    7.32226407844502   17.53525967710227
C         6.24014847638550    6.72461910899148   18.47274428699226
C         6.76211196105157    6.38322286386996   19.71010345586236
H         6.10953003529602    5.93978418329582   20.44823780763020
C         8.09765258826216    6.59460764175060   20.01762887688603
C         8.91633516282297    7.17435264356497   19.06040754161980
H         9.96124581235051    7.33313669101762   19.28435820601070
C         8.42646652214155    7.55544410930756   17.82147433928123
C         9.32783554560810    8.21553533375866   16.82169559676532
H        10.36662906381394    7.99462633308400   17.05114454046721
H         9.20103546346065    9.29872251305139   16.84637236515941
H         9.11004207588371    7.87199338775821   15.81291065722697
C         8.66096910104583    6.18659886143238   21.34376162797015
H         9.20496280300900    5.24859446740035   21.23269695472695
H         7.87190973081961    6.04446159469344   22.07850226567744
H         9.35789233786638    6.93515627313019   21.71512304800777
C         4.80717261717514    6.44624103665982   18.13572545851334
H         4.30772198826337    7.34479654922814   17.77368143799559
H         4.27237160113311    6.07365423112662   19.00554799196488
H         4.76697560624253    5.69206794271015   17.33865418233547
N         7.34314477150807    4.25482682072353   16.32681002920199
C         8.38120213005834    4.00440816284863   17.13476668556180
C         8.17259354314841    3.41987300497452   18.41036405401754
C         9.26318770727805    3.17741383931232   19.22157139725331
H         9.12448241060098    2.72257695096559   20.19090701408566
C        10.54695136065713    3.49508795362397   18.81052602095557
H        11.38650834174157    3.30550068085493   19.46410285923454
C        10.75812984207558    4.02998195022481   17.55056670159674
H        11.76940787431733    4.23948062127858   17.23663708786379
C         9.70229623459122    4.28477361326803   16.69918000469555
C         9.88674365830680    4.80353868188937   15.29134420829119
H         9.09629265691074    5.54683793233016   15.11993461005974
C        11.24161981300401    5.45865784759174   15.03769917545202
H        11.46291219996406    6.20590619270279   15.79550165879381
H        11.23742480286066    5.94677712032126   14.06445721350513
H        12.03670740950291    4.71611641010917   15.03579317309503
C         9.66917058433159    3.66029212488534   14.28987917094126
H        10.35415727030643    2.84064491741286   14.49840735750169
H         9.84078842773443    4.00894779325997   13.27311869197478
H         8.64212865932227    3.28867840699397   14.36130960417245
C         6.76415288007543    3.02698982407305   18.79101943478576
H         6.10235132670083    3.83886206136041   18.46021214766702
C         6.35657186964367    1.76334318883824   18.02093342251432
H         6.36935253635674    1.96053733951434   16.94554421183577
H         5.35140332079174    1.45538858340717   18.30304337795269
H         7.04554327847022    0.94851921471258   18.23598220030804
C         6.56332857814605    2.80805651376498   20.28805070126380
H         7.06996707134163    1.90425328360729   20.62016424554302
H         5.50231984541031    2.69347560708449   20.50335459960706
H         6.94322438953336    3.65185863964789   20.85783754198858

