52
CSD_code = JOTRIT | q = 0 | S = 0 | Stoichiometry = C13H33B4PRu | MND = 10
Ru        1.17706561711446    2.88900526793489    6.46767722674113
P         1.61409001825418    2.52983151030025    4.23909075524203
B        -1.12243002338754    3.10675604079420    6.80604893581223
B        -0.45903014016007    4.29767692934386    5.64695167805691
B        -0.62779152263335    1.41885231586425    6.86153724519145
B        -2.15322362082742    1.65570133633311    6.04164439640368
C         1.76720338402991    2.92768422666551    8.63863428387056
C         1.59097297288736    4.27051911586925    8.19522424413479
C         2.52527230994423    4.52090768554755    7.14041339253835
C         3.33226260471169    3.33821359497626    6.98723904513515
C         2.84881428529311    2.35242897864449    7.89274999389493
C         1.15109686623354    2.34204731455687    9.87327018427215
C         0.80167012142257    5.32717256704251    8.90366646089809
C         2.86481053156835    5.87953959146620    6.60192163404586
C         4.65815834494869    3.30689065413317    6.28427999305277
C         3.50205938312959    1.03369504623312    8.18528315587846
C         2.93779030148416    1.27952790785285    3.90175104339843
C         0.32973681895098    1.79143062858863    3.14181408241873
C         2.21005139923764    3.89303419497195    3.15424198047939
H        -1.38825070592893    3.51447580221890    7.88978215760576
H        -0.53942203253273    4.26951029538148    4.45987224482088
H        -0.64631097378998    0.93523276706727    7.94200771339443
H        -2.31720724580264    1.88197036905148    4.89499268019131
H        -0.32716312773249    5.40376863534063    6.05260954046767
H        -3.12762387928239    1.36403805327867    6.63905975273600
H        -1.71204910995839    3.85002754410081    5.98801845951614
H         0.60646578817023    1.33518781883983    6.34884430764342
H        -1.29410905351225    0.62298514969824    6.07200548576385
H         1.21608281326617    1.25604168197335    9.87189508893337
H         1.67417815543960    2.71280018385539   10.75854075735306
H         0.10198501106871    2.61979254230822    9.95585799220890
H        -0.01329425734262    4.89423059281740    9.47785065218252
H         1.45883671630706    5.86566385596877    9.59139112749528
H         0.38456710095203    6.04526676208544    8.20165890030209
H         1.96193341416514    6.44903804929228    6.39222053602618
H         3.45585053379980    6.43417586511208    7.33540324527352
H         3.44309933488578    5.80685926337630    5.68346614016516
H         4.61016707094508    3.76861745776396    5.29906911748595
H         5.38450249970486    3.86814628982902    6.87760515117406
H         5.03080711838690    2.29011784897519    6.17873684779830
H         3.98556372980404    0.62526086135073    7.29898856171913
H         4.26244443325834    1.15793442097873    8.96050357233673
H         2.77504178553396    0.30545299652031    8.54039579897886
H         3.88861803681560    1.61958195915315    4.30038122822771
H         2.66792132409162    0.34562167379105    4.39287493056666
H         3.04221237109850    1.10562836798972    2.83155788191354
H         0.02500967315567    0.83203020859787    3.55761289985297
H        -0.53807106176006    2.44354293372802    3.10510953596799
H         0.72191501023600    1.64477137686114    2.13578837557782
H         3.12923481051802    4.30673436192136    3.56244938016659
H         1.45727528764977    4.67654701086198    3.13842467418916
H         2.39400977613557    3.53293209276741    2.14268553050242

