79
CSD_code = JOVGAF | q = 0 | S = 0 | Stoichiometry = C40H28Cl6N4Zn | MND = 4
Cl        9.46060238024338   13.05399807980830    7.34271128427238
Zn        9.51301072532414   11.98194498182371    5.40862925662321
Cl        9.58652010990039   13.24791401998240    3.59562600599567
Cl       12.69142732703606    7.29349548913886    8.71042831993323
Cl        1.84757743113545   10.33161111561869   10.52116183417717
Cl        6.27713869861659    7.69546919789183    1.63424357025519
N         7.91267704516231   10.64479582845484    5.46436362954923
N        11.09436119665729   10.63584809501078    5.20894576548142
N        12.40914752607559    9.03928481612025    4.40368274536195
Cl       17.10264977871487   10.83556077489731    0.07759239444447
C         7.80156615195048    9.56126701153386    6.20672162606167
C         8.91472145801191    8.97791492419814    6.95077485660873
C         9.69422355659123    9.75163318279049    7.80678381114046
H         9.41658904222851   10.77226428135261    8.02157090062422
C        10.83999382464574    9.22504042032655    8.37329071881851
H        11.45083432842846    9.83336409965226    9.02044370056272
C        11.21241774403667    7.92235544959381    8.08282779995412
C        10.41356560289950    7.11919820113338    7.28204948317090
H        10.69841764375254    6.09653542608405    7.08865750097131
C         9.26375299080419    7.64568147669195    6.72592121258601
H         8.65526220935277    7.03110973401410    6.07903877700124
N         6.58114738246037    8.97982363050381    6.08154408573316
C         5.85478975911998    9.75513130844477    5.20492434009368
C         6.71357322267126   10.79985941687242    4.81349172494446
C         6.29791753064902   11.75825140037695    3.89602512304821
H         6.96147443067170   12.55135409875773    3.59047581387307
C         5.01777930771201   11.63740507104564    3.39937684078365
H         4.65789416463510   12.36057633463250    2.68361675802592
C         4.16696977511047   10.60248048039109    3.79741904793878
H         3.17244386511804   10.55198640577540    3.38091741927592
C         4.56535463184963    9.64464099230316    4.70704740267884
H         3.90440936926556    8.85012725237707    5.01505952323670
C         6.01182211496960    7.94400232142375    6.90836448445653
H         6.81304376990811    7.49712131940950    7.50365971653528
H         5.57283926570588    7.17300739966569    6.26728334794292
C         4.95931012099979    8.52670750594678    7.82366500735400
C         3.69628665037786    7.96011847282405    7.91597084147189
H         3.45619295853879    7.07966485618589    7.33762347369472
C         2.73622473398704    8.50787426752041    8.74766939149049
H         1.75533251094424    8.06558168163781    8.81884046849975
C         3.04296774444907    9.63886171697825    9.48753037913608
C         4.29999451424516   10.21881881345702    9.40533507088087
H         4.53005712842014   11.09940608292913    9.98333345360577
C         5.25237829661954    9.65832308059950    8.57599765894281
H         6.23110628876624   10.11155335724336    8.51231635712095
C        11.19282520693594    9.64003739696617    4.35103447974161
C        12.96483830513202    8.09635424418260    3.46427659086333
H        12.15532443729713    7.71874406733181    2.83326112123682
H        13.40663486302639    7.25941814246406    4.01423187642782
C        14.01062179431472    8.76936752781151    2.60485786857966
C        15.26687156293999    8.20640101694700    2.43256899420485
H        15.50635636670946    7.26570609804164    2.90696666364252
C        16.22079558939605    8.83480070544430    1.65242761952846
H        17.19632680560611    8.39515962961125    1.51871396587681
C        15.91484165630749   10.04284041088945    1.04608940542161
C        14.66465586687564   10.62023267019700    1.20987363647100
H        14.43513263711460   11.56100162212217    0.73582480145853
C        13.71818732916829    9.97933052644566    1.98607903699356
H        12.74482712182618   10.43072977612944    2.11321615379795
C        13.14667501419955    9.70812096901861    5.35538572105853
C        14.43841144491006    9.53478324535630    5.82877616663794
H        15.09150639407554    8.77482358187037    5.43009507760520
C        14.84968796640560   10.38379790820261    6.83556048008174
H        15.84650046995656   10.28118544807719    7.23673680232377
C        14.00910191660140   11.37415444229668    7.35132758709856
H        14.37895595855582   12.01161635660102    8.13977732103811
C        12.72685682125056   11.55779272078188    6.88000042190771
H        12.07145449973060   12.31733699947776    7.27525827648032
C        12.29834053478973   10.70937447673284    5.86530448270268
C        10.07164520757198    9.14991966960418    3.55342144716819
C         9.71086862596584    7.80450839193627    3.63649812952241
H        10.31504916656290    7.11938564125375    4.21272687395189
C         8.55538633392037    7.35025986690114    3.03064070109095
H         8.26158859992343    6.31539503899302    3.11501435217178
C         7.76267694234757    8.24098161233488    2.32162880003305
C         8.14644550681617    9.56378771970619    2.17020731370931
H         7.54013536585468   10.24273614450637    1.59279938606369
C         9.29785302321379   10.01712246785010    2.78656031760077
H         9.58445435594867   11.05232959047136    2.68080520315153

