81
CSD_code = JOVMEO | q = 0 | S = 0 | Stoichiometry = C25H49N6Nb | MND = 5
Nb       -2.83199941890292    3.47587274823581    4.86173482828234
N        -1.42962821375526    4.44130827147780    5.40674312719103
N        -1.91108725674291    1.75571693094472    3.73105803408345
N        -2.96467413477382    3.37670696124252    2.69349893305079
N        -2.10904049093655    1.55328728782156    1.35786359288353
N        -3.42953591905565    2.28849263398100    6.33822586047138
N        -4.20216208111809    4.92677186274555    5.02590464882086
C        -0.37939029858794    5.22834397807711    5.69283567604575
C        -0.24593955030316    5.84530708245926    6.96229046097284
C         0.85762068652723    6.63655123484705    7.22656486437283
H         0.96185624157870    7.09921513525008    8.19732797099440
C         1.83088013256770    6.85381461272865    6.26835575599168
H         2.68652219218316    7.47407076190254    6.49167661384499
C         1.69464730207115    6.28361289443097    5.01326242321605
H         2.44902966310707    6.47969846449138    4.26657851316447
C         0.61471769170605    5.47774501959598    4.70734832326523
C        -1.31883841254211    5.63984662891220    8.00573028036743
H        -2.12192948997057    5.05041866165176    7.53855954409675
C        -1.91265358413792    6.97459335042693    8.46183082913114
H        -1.16974180937086    7.57881183018125    8.97734019433475
H        -2.74330768391785    6.80069389600247    9.14251969155214
H        -2.27787947683410    7.53449118242209    7.60478772499345
C        -0.75793793363074    4.86516799636690    9.20140514193735
H        -0.31583845479431    3.92906170713053    8.86750188697203
H        -1.54696111473911    4.64554945718160    9.91784718974471
H         0.01209366426849    5.44448538996234    9.70629592128920
C         0.40804753058900    4.89801476942668    3.32666133986345
H        -0.12158962443245    3.94213550984354    3.44792411583137
C        -0.51421542403006    5.83705656848023    2.53834445443525
H        -1.48177966162569    5.89962447061324    3.03903240330171
H        -0.66660528491188    5.46475297147243    1.52626252684652
H        -0.07680209609896    6.83228526067437    2.47871337174312
C         1.70552165288091    4.64728143125401    2.55933621054840
H         2.17010948674742    5.58292616439500    2.25631451699612
H         1.49958249385025    4.07227593336350    1.65746434444669
H         2.41118850647938    4.08857725844191    3.17012520867284
C        -2.33794947487293    2.21225620162324    2.57640285513032
C        -0.85858124453039    0.77943630025704    3.97260044135740
C        -0.19012627582882    1.20879945057246    5.29186471426450
H         0.23665415035068    2.20647902671426    5.18893272027316
H         0.59892984043548    0.50994499584685    5.56268504808643
H        -0.93119863709620    1.23901529531249    6.08976885361821
C         0.22052597847646    0.74664743048827    2.88012155021234
H        -0.14239522106256    0.28541959118064    1.96754940267322
H         1.07380358220337    0.17306190102695    3.23607557932062
H         0.55259191031165    1.75732986707692    2.65428578140711
C        -1.43969981010780   -0.63182065202400    4.17564886296166
H        -2.25997592897957   -0.59558523885054    4.89032427902250
H        -0.67068150396726   -1.29407471243006    4.56705838592896
H        -1.80456802557363   -1.05311125868652    3.24311823246394
C        -3.85088842993785    3.92777452503209    1.69722917416832
H        -3.36397525024599    4.03561954102404    0.71891376667553
H        -4.11309400296690    4.93528619212369    2.04274158510963
C        -5.13780128304402    3.11006420517124    1.52627240028571
H        -4.92165603180277    2.12332061170450    1.12130232961964
H        -5.81834014180710    3.62002778956048    0.84712561036308
H        -5.63848300858932    2.98675165560484    2.48675209746080
C        -1.63394856169423    2.26978438331672    0.20421628074710
H        -1.17236579165980    3.20177699868905    0.52293400445251
H        -2.42701108079083    2.48191427672437   -0.52833795576040
H        -0.87335696588407    1.66089883690017   -0.29732363009982
C        -2.77335446161689    0.31018656182048    1.06547599926422
H        -2.05979967966865   -0.43675037495301    0.69745434629081
H        -3.54010142978334    0.44482585203888    0.28719310593981
H        -3.25749475127698   -0.07172125407629    1.96151864495962
C        -3.13051022180174    2.14893479082528    7.74066207419705
H        -3.99843478776737    2.42452514272608    8.36276849809956
H        -2.29430627640854    2.79803901820265    7.99582230288049
H        -2.86412021430508    1.10823548707945    7.99181268957980
C        -4.43326970301969    1.33919617424824    5.94007888968188
H        -4.13725251837920    0.30785491308955    6.20428973908365
H        -4.59673259031792    1.36687064179658    4.85528704987205
H        -5.39945488820869    1.52945177959100    6.44255674167083
C        -3.99930479127902    6.35567317602829    5.10746093481658
H        -4.39766217433654    6.86695238959058    4.21484794692016
H        -2.93362563921630    6.56928067098658    5.19264824907833
H        -4.51674130343044    6.77371700204517    5.98467295311126
C        -5.61499470408789    4.64940621868970    4.95946241379360
H        -6.13282378772451    5.02530311067974    5.85812896611868
H        -5.80194354769916    3.57420148896712    4.89347024165518
H        -6.08556115001743    5.13883367820541    4.08815931907779

