98
CSD_code = JOVNAL | q = 0 | S = 0 | Stoichiometry = C50H40N2O5Ru | MND = 7
C         8.75609347828355    5.01929285380506   10.58013258513034
C        10.03122137193725    2.80129412643472   10.03503244822754
C        10.15150649013055    5.35898166156902    6.88027791567704
C         8.85186659413762    5.68094033613753    7.49916480409495
C         8.08997230013563    4.46037718015631    7.64161902304460
C         8.94459864395361    3.35860244645172    7.30043879065228
C        10.25364926693896    3.87946090581811    7.01373564961640
C         8.20257215847550    6.99834753689671    7.43679453832023
C         8.61952819277071    7.95653108492651    6.50985294297888
H         9.45506101599856    7.73599166594012    5.86323304366604
C         7.97907336397768    9.17835726194130    6.42533609490443
H         8.31516755631804    9.90773295867455    5.70216363101220
C         6.90794663308320    9.46759263826323    7.25403370446456
H         6.40426066619008   10.42052184961706    7.18055692388857
C         6.49100261794066    8.52793174042805    8.18343306843296
H         5.66275267857849    8.74795605161354    8.84200878760705
C         7.13375785397183    7.30968720217034    8.28181298906838
H         6.81799767942305    6.59785917506836    9.03178956599944
C         6.61820607940621    4.37905056260780    7.67486094037715
C         5.90337570564385    4.82026906376730    6.56808522762725
H         6.43544458963648    5.22292662579335    5.71801130314530
C         4.52231725301345    4.75510882560171    6.53679190636853
H         4.00420421874178    5.10937856229750    5.65963115208333
C         3.82678599892585    4.24152512872953    7.62545068574784
C         4.54033775078184    3.80003153993431    8.74058781046734
H         3.98854298713152    3.41141638052555    9.58177905375163
C         5.91532692940810    3.86937272769202    8.76337342175398
H         6.45644191537428    3.54866686794274    9.64489888558153
C         1.69532174798076    4.58371199771785    6.62395770038539
H         0.65905868108913    4.41490664957987    6.91303164961436
H         1.91180003186510    4.01910528016314    5.71092724415544
H         1.84851895373848    5.65146125393837    6.43560291508149
C         8.44040346632175    2.01804061141146    6.96608646126646
C         8.60612802052925    1.54561506060733    5.66804602373933
H         9.13477419655579    2.15035387467369    4.94523468289532
C         8.10405138560613    0.31563854667646    5.28498597503231
H         8.25535974195276   -0.01434832244604    4.26927131103926
C         7.41628137907851   -0.47075956090738    6.20265010065432
C         7.24465147341995    0.00003384524588    7.50536418764669
H         6.71373521877685   -0.62080212843588    8.20936827844788
C         7.74824223975938    1.22535599109653    7.87964864645334
H         7.62754712838942    1.56567676572263    8.89859545790216
C         7.03570779630110   -2.23129734749880    4.64697285752080
H         6.54527821939255   -3.20326301846792    4.67058986854405
H         8.09152703548643   -2.36563736233980    4.38951862213907
H         6.55459242110598   -1.60275844002515    3.89026340582349
C        11.36054047375664    3.07389622128991    6.48196717833963
C        12.29516316423810    3.62978152824782    5.60702055784949
H        12.19883221264850    4.66596102144362    5.32306291845185
C        13.34022618028617    2.86925111090901    5.11690226856143
H        14.05321589595368    3.31752568356768    4.43943161375478
C        13.47575305810940    1.54113327316642    5.48402563474751
H        14.29130338683728    0.94796420049054    5.09628774666238
C        12.55875584706913    0.97902667426334    6.35818940292203
H        12.65950202361052   -0.05417066043694    6.65875904187407
C        11.51671985780740    1.73454347000368    6.85663723369266
H        10.82183233118303    1.28490769247869    7.55390643388228
C        11.60240492061805    5.37809916282608    9.30449952363875
C        13.17703288971636    6.94639545754852    9.10887990989231
H        13.57548985490584    7.93711867827219    9.03494932228999
C        13.79278949645624    5.74440825370077    9.06562542483363
H        14.82595398091712    5.48803377581985    8.95666904364207
C        10.87077221655775    7.75483286373356    9.42604994606018
H        10.11540508234113    7.69405164500719    8.63708837145268
H        11.39404030326022    8.70913783367140    9.30151685124064
C        10.19986305537111    7.72683831805483   10.77961586636502
C        10.78877930754083    7.11007108097731   11.87639405906632
H        11.74630245566665    6.61751070666521   11.77838522685736
C        10.15633098348225    7.12287108181050   13.10759069477250
H        10.61981888582289    6.63142168245728   13.95022253901075
C         8.93731501499866    7.75929052370232   13.25822771698857
H         8.44226106150203    7.76187338773701   14.21755539209644
C         8.35488271996299    8.39179365759280   12.17289660701348
H         7.40442456672669    8.89190227485936   12.28338367956344
C         8.98292590702611    8.37807060739896   10.94131205873126
H         8.52448441558316    8.86561562220008   10.09359494322061
C        13.13386327884261    3.39791285446788    9.34322579310932
H        13.91826134057346    3.13214503762824    8.62975900328422
H        12.24453714830677    2.80407459098847    9.11173805664344
C        13.58210863049875    3.12312655369297   10.75935658308823
C        12.78226314613148    3.52143547878428   11.82474228331849
H        11.83314962781140    4.01011100030993   11.62868662926839
C        13.18818474439919    3.28704978948770   13.12550214776359
H        12.55930108877713    3.59706969714006   13.94648238660987
C        14.39364149584671    2.65127438259508   13.37464165257616
H        14.70903843231699    2.46752859081556   14.39074776092574
C        15.19084885206142    2.24885403382864   12.31767015749733
H        16.13018654098095    1.75058735322067   12.50616841435951
C        14.78813633300680    2.48769172900128   11.01457319968090
H        15.41257356633037    2.17230463142370   10.19073269292930
N        11.84125414355668    6.70404053398662    9.25925088806737
N        12.81406630520474    4.79623641833048    9.18647281149560
O         8.08523128704892    5.33890565569855   11.45859864145847
O        10.14359565371864    1.78869266871668   10.57407184467531
O        10.99909207378682    6.14518567861438    6.44783523278698
O         2.47097955479809    4.13333134088181    7.70686179861052
O         6.88224189128761   -1.69601500008409    5.93812292922469
Ru        9.69843218699888    4.37846149593944    9.11400960282855

