37
CSD_code = JOVQAP | q = 0 | S = 0 | Stoichiometry = C15H15ClN4NiS | MND = 4
Ni        3.57663976185039    6.70015134787183   -1.05360173544142
Cl        5.37030474819622    7.59987484933228   -1.09890233305197
S         2.52268478656848    8.41900698915097   -1.89669115663708
N         4.21624882016332    4.98036598808900   -0.24667897254229
N         1.93293637837921    5.86135740373145   -1.02223444672929
N         0.81122916449842    6.41626013766882   -1.45396581093173
N        -0.10525284431609    8.29357280817130   -2.37259630516719
H        -0.99463937821750    7.86295590680965   -2.15484132364914
C         5.42646202916451    4.59826253854504    0.13239154702584
H         6.22021280573328    5.32038067673032   -0.01178844782041
C         5.67480938431568    3.34989507204041    0.68191257731385
H         6.67611738030416    3.08222704057234    0.97684519255060
C         4.61750255106693    2.46326589806933    0.84144804086259
H         4.78126040002486    1.48400277082032    1.26586087057585
C         3.35248981409594    2.85211640136970    0.44904294841222
H         2.50339391516883    2.19545281735542    0.55456126075514
C         3.17280751952590    4.12630887848088   -0.09655991858332
C         1.91554536622240    4.64879515057997   -0.53927556029688
H         0.99326368960144    4.08380491167250   -0.48460093871380
C         0.97572725112960    7.64495566982168   -1.91412916374104
C        -0.12650422396267    9.61197370751983   -2.88161723102832
C         0.56122720786267    9.95440269225621   -4.04714327413509
C         0.49604354130109   11.27388349356690   -4.47754635535293
H         1.03336820196290   11.54886677996397   -5.37404390889910
C        -0.23690311678772   12.23979937014557   -3.80613229880750
C        -0.94683853360499   11.86351904414622   -2.67134976000120
H        -1.53865799162858   12.59388772096934   -2.14001758191094
C        -0.89307050875652   10.56286741718393   -2.21628663260876
H        -1.43735264021726   10.27279032314652   -1.32901052196881
C         1.33028731801757    8.94917719204075   -4.84365682207767
H         2.37294161052446    8.93776356865646   -4.52627922309290
H         1.30042512782910    9.20305418736188   -5.90058106247208
H         0.92771310633414    7.94777925460492   -4.70732114160521
C        -0.25638541680220   13.65916129849111   -4.28319394688117
H        -1.21800855778174   14.12440706447607   -4.07908499646302
H        -0.05372691689219   13.71499538112353   -5.34974482446229
H         0.51139824912439   14.23245824744716   -3.76298674241860

