104
CSD_code = JOVSEU | q = 1 | S = 0 | Stoichiometry = C50H42N6OP2ReS2(1+) | MND = 5
Re       11.20574971575905    6.29993125786234    4.62490008378970
S         9.86119084279223    5.68235770107014    6.46228012075907
S        11.76870552318756    4.97756355545493    2.74771164826777
P         7.27013975336209    6.04608210571853    8.22278711024684
P        13.99692812500143    4.15324062720331    0.84778828412467
O        11.82634781234982    7.86489641802093    4.66532314405156
N         9.41416869208898    6.54386355593358    3.82156746801650
N         8.26715206516056    6.50025873900195    4.58977369982036
H         7.39529934085167    6.79363663843236    4.15831403243486
N         7.20511206794558    6.18131001589611    6.60776766759760
N        12.67694347048288    5.22711565283934    5.39352490798270
N        13.55479071138010    4.53461595160726    4.57579516009650
H        14.43219378632483    4.21993494608714    4.97982935180119
N        14.25480105452173    3.97934579165881    2.44189130233019
C         8.30010107814662    6.17129331894132    5.87232359870529
C        13.33704724786120    4.43544990289873    3.27315927073072
C         9.17680929719256    6.60019931059211    2.45036097009839
C        10.07160979748156    7.32389246239895    1.65396836085067
H        10.88129747763548    7.85634645882844    2.13593193196459
C         9.91470268787082    7.35579738647813    0.28417415212813
H        10.61688854536079    7.91211005404295   -0.31889427848784
C         8.85557289102455    6.68934958348718   -0.31496833666143
H         8.73235389603822    6.71901694805645   -1.38667979075906
C         7.95209189284343    5.99210125049126    0.46897668857161
H         7.12306225344357    5.47448927822068    0.00978975611154
C         8.10571143493966    5.94180888842812    1.84194825227049
H         7.41310998878797    5.36038393136628    2.43540756969960
C         8.21386789220597    4.62885616086259    8.85500650721131
C         8.14835897339144    3.44884736957708    8.12070096488465
H         7.54184092644831    3.41751081821109    7.22483986964991
C         8.86372022573717    2.34175113460402    8.53408775433622
H         8.82064151436132    1.42684273941485    7.96261190456196
C         9.63774381959259    2.40959659926163    9.68227832101396
H        10.20266984183851    1.54708707446584   10.00127704658157
C         9.68235778916121    3.57708395460598   10.42573790725948
H        10.27422806115926    3.62177893595541   11.32710328128988
C         8.96976388462661    4.69100075092220   10.01842565041097
H         9.00169366761310    5.60113442599429   10.59935826894078
C         7.91151060059445    7.57379696885184    8.95800582852538
C         9.28080048293646    7.79737120701147    9.07489119629790
H         9.98364925698056    7.02321503682044    8.80314460839925
C         9.73339923521827    9.01842720389487    9.54114188082153
H        10.79429694790920    9.19643673764742    9.63036489251432
C         8.83119662269846   10.01191832877246    9.88763918863422
H         9.19052440067580   10.96203721558521   10.25219863089947
C         7.46877236416031    9.79050042888669    9.76288820993315
H         6.76684537493584   10.56600592108937   10.02908448912073
C         7.00543977602886    8.57555368951054    9.29154601393181
H         5.94464166418889    8.39516620282783    9.18311475425700
C         5.56280245718524    5.81779321283076    8.72930938288319
C         5.30010166250919    5.57804395995195   10.07472070657550
H         6.11911961456977    5.53764663809060   10.78076541036724
C         3.99529098420361    5.39496506222034   10.49174805605090
H         3.78218122553448    5.20953159135174   11.53343048842906
C         2.96048153205637    5.44804395770295    9.56925587031147
H         1.94251722643452    5.30374176879774    9.89760282011729
C         3.22632711095778    5.68410104640390    8.22974419859566
H         2.41610755221178    5.72378256308341    7.51750989150172
C         4.52968795512747    5.86997185923739    7.80368012461172
H         4.76423780354713    6.05700303462331    6.76688132578400
C        12.84287338245677    4.95342385485222    6.75051179924969
C        13.16300692955451    3.67813089464685    7.21980929368547
H        13.30235263894136    2.86278283923182    6.52303413228509
C        13.25975234322981    3.44573991333610    8.57896237186942
H        13.49933661475149    2.45398327795331    8.93173261951064
C        13.04444496267906    4.47126307609960    9.48330431215089
H        13.12147318208034    4.28246699784098   10.54267644192842
C        12.74264978819150    5.74387695585277    9.02246378693854
H        12.59372063336213    6.54972882718750    9.72546281237481
C        12.65018762171589    5.99102699638325    7.66826019852365
H        12.43661004710684    6.98180651578658    7.28783043886325
C        15.48525624615401    3.49411839911223    0.08401938153295
C        16.66707737543952    3.47395562616281    0.81437197530496
H        16.65469665583328    3.81010421699232    1.84003878034944
C        17.82766995078633    3.01002470573147    0.22233826066524
H        18.74767660974326    2.98583790985980    0.78638004103775
C        17.80995636338134    2.57833106739042   -1.09464563152135
H        18.71709145204501    2.21746237754389   -1.55477147610084
C        16.63112942278363    2.60530840248861   -1.82399539328285
H        16.62106718922482    2.26543900822610   -2.84846707025179
C        15.46579179945877    3.06527817501334   -1.23894518085990
H        14.53971861197284    3.07534091157092   -1.79784636668862
C        13.82125133300797    5.88883243247754    0.34848457617742
C        13.95573477038605    6.91643377996918    1.27480465284384
H        14.16088847034739    6.69585009760631    2.31328849477104
C        13.81079299135484    8.23043510305063    0.86765119829743
H        13.89746780272527    9.02491638306120    1.59264651755287
C        13.55121124925966    8.52040325023045   -0.46198269412413
H        13.43664076367980    9.54659343099187   -0.77675667255610
C        13.44379312528664    7.49666512895323   -1.39117282920049
H        13.25269064852959    7.72457643167451   -2.42908708598974
C        13.57750853954642    6.18037328550697   -0.99053590972568
H        13.49095643457426    5.37831157845404   -1.70968037972284
C        12.58571365150314    3.21183721917819    0.19925400170703
C        11.41687408509250    3.81532162339831   -0.24712898437647
H        11.32348978622024    4.89224949378439   -0.24629813359727
C        10.36680896715785    3.02369178487531   -0.67603148592214
H         9.45669029103642    3.49016863398434   -1.02154508129927
C        10.48055746875806    1.64238279215446   -0.65699165946709
H         9.65813647286986    1.03012689140710   -0.99461892978267
C        11.64473501684117    1.04255098813955   -0.20141007343021
H        11.72917372444143   -0.03343694518816   -0.18284484178825
C        12.69904664827256    1.82572045307976    0.23107041237285
H        13.61499808235055    1.37752986381742    0.59441178274495

