65
CSD_code = JOVZOM | q = 0 | S = 0 | Stoichiometry = C24H36NiO2P2 | MND = 4
Ni        1.46228436165534   12.43608226430834    6.53593785831393
P         1.22395275902047   10.31247570719310    6.69084929847342
O        -0.10085719399625   10.06159816892682    7.62103302356828
C         3.04274680543487   12.43664376839537    5.42141144979212
C        -0.71267619415997   11.24313058385230    8.02453899219130
C         5.45791601999648   12.43640999184938    5.09118786826397
H         6.45141882193254   12.43621770455148    5.51995597797536
C         4.35066049544313   12.43658632145217    5.92491278238340
H         4.52411375540400   12.43614872999957    6.99701937044420
C         2.91601650769213   12.43629245250472    4.02625854144036
H         1.93058481913879   12.43649422344773    3.57043550240395
C        -2.42326393881438   12.43621101441675    9.18037929419232
H        -3.31802365742393   12.43620146408397    9.78447856780493
C        -1.85978146183648   11.22740696314110    8.80098248323535
H        -2.29991346558875   10.28883726641527    9.10104038686535
C         2.44109485668377    9.27738041531802    7.62236553547790
H         1.93662391735878    8.34975177388853    7.91621153345696
C        -0.11910565596921   12.43620294958854    7.61858276606052
C         4.01913669186155   12.43626384674828    3.18902399653317
H         3.87871491006553   12.43648788553558    2.11616451821292
C         5.29729581663891   12.43633385272538    3.71788161333527
H         6.15946494284477   12.43638084215578    3.06599258714838
C         0.76549724493201    9.33907214279312    5.18020600182393
H         1.64397230409615    9.34613226009813    4.52712855998821
C         2.80337230779496   10.07552724334891    8.87200253901123
H         3.19028801108779   11.05373140345670    8.58131887545241
H         3.56051050285280    9.56190854846327    9.46232333814030
H         1.92335678468564   10.22973302616751    9.49526224491407
C         3.66955239924512    8.97900067232122    6.77477258523908
H         3.42254819859025    8.33633538389263    5.93286852348777
H         4.42840927450358    8.47847400725824    7.37453485429876
H         4.09017006936886    9.90439401598496    6.38561346010730
C        -0.36455551538427   10.11158400360355    4.50454173567032
H        -1.26790761541520   10.06461185637115    5.11130870844693
H        -0.58669130687647    9.70446601158318    3.51964569083679
H        -0.08325916132921   11.16115097631336    4.39494824964067
C         0.35037134521035    7.91059713637195    5.50396233344411
H         1.19251219834204    7.32128246467329    5.85859890701732
H        -0.05085339044225    7.42864477964231    4.61341660208839
H        -0.42178252132422    7.91171738707350    6.27080197277382
P         1.22400444917015   14.55984730239491    6.69082479988474
O        -0.10083882795607   14.81079241564526    7.62094686745725
C        -0.71268937394191   13.62928283587813    8.02449724038560
C        -1.85979902559452   13.64501452578557    8.80095142697751
H        -2.29993648315509   14.58358132803061    9.10102391577590
C         2.44099899972681   15.59513330176149    7.62233046079773
H         1.93652770231708   16.52275277978238    7.91621368164619
C         0.76564312257118   15.53342424097543    5.18025919375196
H         1.64418125872773   15.52634445324106    4.52726908891564
C         2.80338458242258   14.79708385221192    8.87199673631971
H         3.18997218198826   13.81873866271949    8.58134381023992
H         3.56078407152877   15.31057863773330    9.46208662226387
H         1.92347403118275   14.64317896689849    9.49547003023959
C         3.66940260376548   15.89357508458339    6.77468311139622
H         3.42232841466794   16.53628357074171    5.93283703280756
H         4.42832147491558   16.39407461188900    7.37439208415760
H         4.08995048784935   14.96818838489537    6.38543436808325
C        -0.36436953545429   14.76099008141209    4.50444382397283
H        -1.26784347389778   14.80811983212553    5.11101350690418
H        -0.58625918708114   15.16802043384592    3.51945667557900
H        -0.08315777443549   13.71138141435500    4.39501315740460
C         0.35054991863085   16.96192937918162    5.50396929661292
H         1.19268875813344   17.55118350222935    5.85870952097858
H        -0.05055213049949   17.44395166209246    4.61340775488466
H        -0.42168128880208   16.96084722997223    6.27072666284536

