94
CSD_code = JOWBOP | q = 1 | S = 0 | Stoichiometry = C46H40BrN4O2Zn(1+) | MND = 5
Zn        2.61749745629802    3.26034477228475    1.59660301158041
Br        1.81344693088686    3.99041416377272   -0.42465446120845
N        -0.75365994710692    0.57334631876114    1.31908433626095
H        -0.03803092892591    1.31173133533376    1.21554596066425
N         1.51529717156131    3.78990142981677    3.28877537724852
N         5.40014404574416    6.41147781437317    0.59499974527831
H         4.87156978608287    5.54276756491892    0.77862256356262
N         4.35958397848215    2.20825197010137    1.95878968779958
O         1.70055179448486    1.43718079054096    1.50861854356995
O         3.64706420822721    5.01802811826841    1.92865418755726
C         2.05435404414513    0.29697391212322    1.93129994876811
C         3.39473373086159    0.00479482978135    2.34760236003059
C         3.72313827295366   -1.27628721553136    2.78072808130113
H         4.74379511364626   -1.47331838538125    3.08042295031240
C         2.79852884540194   -2.31730836364955    2.84377288976559
C         1.49724718718374   -2.04610151115566    2.48009849636698
H         0.75380889818535   -2.82859964170411    2.53440497682744
C         1.09268562517731   -0.77627174943430    2.03491894496243
C         3.22586518692506   -3.67652779056210    3.29959449856545
H         3.70952374845919   -3.61956963570098    4.27296296054579
H         2.37594244216832   -4.34864603272170    3.37106290000699
H         3.94298310491384   -4.10024263467624    2.59806665288132
C        -0.26989387429191   -0.56131462417697    1.74569169246965
H        -0.95380841380692   -1.38375153486412    1.92052140302090
C        -2.08753927098084    0.90465480269318    1.08678007251091
C        -3.04927344143583   -0.09201381390931    0.90479765853841
H        -2.75707622536929   -1.13020471891397    0.89460955301681
C        -4.37350244187382    0.23597257036077    0.70399371043128
H        -5.10412978577588   -0.54435784899716    0.56124200882259
C        -4.75607314109705    1.56829232814574    0.67793946931249
H        -5.79003914249172    1.83277578599449    0.52243985756639
C        -3.80345590911851    2.55744669598838    0.83477695634664
H        -4.10230761640918    3.59430326579777    0.79652079762613
C        -2.46024914776661    2.25803137421244    1.03249643521856
C        -1.49351857852018    3.38974346985120    1.21120663635563
H        -1.84996865136161    4.24177358872469    0.63050606698380
H        -0.50615481091079    3.14092281429804    0.82662170201045
C        -1.37348266223915    3.84219815786520    2.68383499039321
H        -0.79870381352883    4.76932874614119    2.70023547971944
H        -2.37274622123060    4.05359921082712    3.06966868570200
C        -0.72144274938908    2.79662814472702    3.54234083663307
C        -1.48958779752628    1.76391430325802    4.07012780133709
H        -2.55675117863838    1.77376704916934    3.90216967931252
C        -0.92017083015734    0.73871840186950    4.80214352208099
H        -1.54027535147580   -0.04867675451526    5.20156153362345
C         0.44589200481046    0.73214078216317    5.02862842249798
H         0.90306681171877   -0.06155349474133    5.59924019238153
C         1.22630519691367    1.75754393757859    4.53183378287415
H         2.29150488777725    1.77419279346564    4.71476186902029
C         0.65488617042220    2.78672758086733    3.79139313013428
C         1.52599885421301    4.91665968261679    3.90167215236896
H         0.85640190849315    5.04295714904966    4.75983928270154
C         3.34976984586148    6.05245730847538    2.59293380601813
C         4.05754739372742    7.29512219210969    2.36936421150217
C         3.74556162006221    8.42984075856920    3.13508008845205
H         4.28862239115275    9.34411353715610    2.94153559055086
C         2.77373249434729    8.41514600942304    4.11479112852853
C         2.07973126927621    7.22713514524979    4.32550275857241
H         1.30672312259196    7.20442730855804    5.08196472853923
C         2.32464197196151    6.06548750844367    3.59697177877465
C         2.45674431649287    9.64580989163031    4.90524750849209
H         1.91277164957589    9.39716792174551    5.81239708294904
H         3.36756739192433   10.17574695893303    5.17413216368412
H         1.84002427136184   10.32122347406715    4.31232864001100
C         5.04956388742838    7.39988779408258    1.37284404017679
H         5.52951083775821    8.36309817510824    1.24495174515618
C         6.35890985768313    6.38692915351211   -0.41483715878088
C         7.27420800016338    7.43051617240388   -0.57016348972334
H         7.25632972896116    8.27391307112921    0.10156588434235
C         8.22817348724960    7.38721057207957   -1.56544260050011
H         8.93119252469021    8.19838596548992   -1.67016422965075
C         8.28110691736892    6.29957895086990   -2.42340252637831
H         9.02297646666885    6.26110864942228   -3.20533278419790
C         7.37934461435577    5.26268590489436   -2.27092195801192
H         7.42159011103137    4.41751603892892   -2.94164504363575
C         6.40893355245132    5.27705693486228   -1.27641528561114
C         5.48136651809180    4.10490557800728   -1.15838779461025
H         5.29710007608936    3.70539132906342   -2.15689675193852
H         4.51359602114833    4.39783117924969   -0.75711603335228
C         6.07950971005073    2.96480419107935   -0.30384331844338
H         5.38224039395541    2.12557572558108   -0.32727046860810
H         7.01803788805070    2.64270783119465   -0.76066351075434
C         6.34497823739741    3.38176406618180    1.11499202469852
C         7.46179132140548    4.15765337273247    1.40936250545061
H         8.14522886001275    4.40973031364945    0.61211607040752
C         7.72045382460790    4.59697668269359    2.69461685813861
H         8.58968748742623    5.20495720536103    2.89181680438749
C         6.87012178469754    4.24036134233525    3.72705081009254
H         7.06320993612369    4.57188184050892    4.73566606110425
C         5.78203574307198    3.43048853897808    3.46643193765908
H         5.11816051565183    3.13104140645566    4.26550931605445
C         5.50763051032462    3.01003164403436    2.16896758791548
C         4.43078542396386    0.99445143558403    2.36550837660969
H         5.38481254909040    0.64452101508426    2.77548345228011

