89
CSD_code = JOWBAB | q = 0 | S = 0 | Stoichiometry = C16H48B20NiP2S2 | MND = 4
Ni        4.37886496636200    4.96003112582470    7.17773865725612
P         2.59705336660808    4.92806224922259    5.94980938773767
S         4.46067990231524    7.16960673805269    6.88092356703018
C         1.77089263627528    6.60040420584495    5.91204904899876
C         2.78783326302976    7.70446599443223    6.46940558443026
C         0.80007736915848    3.60409816969557    7.65575387724191
C         1.27555730263375    3.63548637402022    6.20417369315541
C         3.20634866143930    4.57186151265971    4.20166549633286
C         0.10918705002792    3.66939336073809    5.21843116526139
C         4.66019553440192    5.05031018424506    4.12020167537542
C         3.19589257132920    3.07880383455826    3.87365368623675
B         1.51712393395275    7.22768256477910    7.50582250714218
B         2.00433191256968    8.90991412279251    7.40977038205287
B         0.15755020872511    6.97530691136857    6.43242105344988
B         0.67967147039002    7.27292744243600    4.77640686332846
B        -0.24813172178221    8.51247860039754    5.66861076865687
B         2.35641632497664    7.77820288523786    4.79567653105872
B         1.12880777235597    9.00493359648863    4.65971553633625
B         2.53006049484442    9.23496118185121    5.75555416142038
B         0.90769937054149    9.72998432957349    6.28027627555280
B         0.28255456965301    8.47093248990008    7.37695576643126
H         2.58801860960292    5.11784692886977    3.47990624730764
H         1.81390023846447    6.50966979978762    8.38961653818021
H         1.01021913695275    9.61686024002073    3.66290239571757
H         2.61277867457136    9.37121358981718    8.30244394592596
H         3.16327186035369    7.44474495606843    4.01673981889093
H         0.62844569798712   10.86435560606363    6.41250380851311
H         1.83784174154360    2.70675774392128    6.04882729231110
H         0.30298098413962    6.58170093733106    3.90203897844440
H         1.65738425109633    3.54480233205861    8.32508842787230
H         0.21555163091181    4.48211085769265    7.91375780850879
H        -0.43773942806187    8.69038981401775    8.27997501287517
H         3.47406339682988    9.90962039743125    5.57413760046548
H         4.75223852069080    6.12945530921899    4.21728389499292
H         2.19300421955105    2.67450514774264    3.78073477046818
H        -0.59650019807787    6.11019178548351    6.66994194444653
H         5.11045537961848    4.75724015835052    3.17312818159696
H         0.18345222769131    2.72251191130840    7.82026937442166
H         5.23814377695854    4.58284438844151    4.93216663410998
H         3.73250842397395    2.51996175011469    4.63949431947937
H         0.43583200826836    3.89767550666477    4.20718606882940
H        -1.35710578392428    8.76893677284818    5.37274225628840
H        -0.63013213706115    4.40957662428403    5.50377621459075
H        -0.38049948167495    2.69653557224157    5.20649976720970
H         3.70567682385312    2.91798825126837    2.92452996155292
P         6.16104012443083    4.99091277128222    8.40544129018326
S         4.29808909458122    2.75038929177465    7.47421304285059
C         6.98752254241374    3.31875361430646    8.44346562256720
C         5.97063957078622    2.21481618253801    7.88586823347247
C         7.95836868496389    6.31507633941233    6.69993142582081
C         7.48271045464958    6.28350675628061    8.15146954299819
C         5.55207384695913    5.34731355009980   10.15370765399986
C         8.64918780495630    6.24978865213043    9.13714455818593
C         4.09822181516944    4.86885931096326   10.23503647336985
C         5.56242147045919    6.84037083696909   10.48182943385616
B         7.24146857122447    2.69166504550901    6.84965977845239
B         6.75419727437831    1.00943832437383    6.94546623331688
B         8.60091319974584    2.94386567154940    7.92328103459228
B         8.07855394922707    2.64609127928907    9.57919955511468
B         9.00642243980992    1.40660043661297    8.68698940796680
B         6.40179562450474    2.14088111462809    9.55963735366952
B         7.62932848364493    0.91408691508085    9.69563836806221
B         6.22823212763766    0.68422746954830    8.59958071502965
B         7.85063894568048    0.18920343049535    8.07503004520114
B         8.47597659520874    1.44835123108374    6.97857422735484
H         6.17031560547691    4.80133615285297   10.87556226971663
H         6.94481211298461    3.40978983226868    5.96590935758411
H         7.74771579390064    0.30207103089979   10.69241784675859
H         6.14585536822237    0.54828746804693    6.05264491647943
H         5.59482392151620    2.47430558260609   10.33846771758778
H         8.12986400648933   -0.94516275596431    7.94271557426476
H         6.92053996504589    7.21232541691445    8.30676161939161
H         8.45509181862956    3.33726402041537   10.45367858134997
H         7.10111653852196    6.37443014783359    6.03054040959904
H         8.54289335616432    5.43707935129017    6.44187941085192
H         9.19638901253217    1.22898798722629    6.07562785303723
H         5.28414802202004    0.00962136311596    8.78076702983530
H         4.00618251124732    3.78970513108450   10.13805871278788
H         6.56529994700963    7.24468117001291   10.57480384803092
H         9.35499391362414    3.80900540040657    7.68592938804345
H         3.64785637563717    5.16199824763357   11.18203797808571
H         8.57502426477864    7.19665772342503    6.53544254339602
H         3.52033297631973    5.33623578863243    9.42297319919271
H         5.02584236473691    7.39921240169282    9.71596432189192
H         8.32257686683136    6.02145191070294   10.14838030046917
H        10.11534593882034    1.15010129274286    8.98300024594115
H         9.38853150131061    5.50963756856555    8.85179407882586
H         9.13890782936828    7.22264023888936    9.14914880588361
H         5.05257983431320    7.00119504961235   11.43092304744375

