31
CSD_code = JOWCUW | q = 0 | S = 0 | Stoichiometry = C13H12ClN3OPt | MND = 4
Pt       -1.07615534123161    5.56626938181823    8.30607185033411
Cl       -1.35490516556645    4.27520146772992   10.10745341386335
O         0.78128273475047    5.87561908039222    8.91070911875948
N        -2.88104276780967    5.32070531505438    7.58718714079874
N        -2.06835137972013    6.78100925074042    5.98690360296378
N        -0.89537920818846    6.69082909721302    6.69606168941552
C        -3.09748087827349    5.99470572853432    6.42905964967093
C        -4.30689269730351    5.85204049685280    5.73512022153461
H        -4.45949138353070    6.33933229164783    4.78712602238701
C        -5.29589067000544    5.05223850829146    6.26284332045253
H        -6.23042529573738    4.93436272805944    5.73710366723788
C        -5.07084672673222    4.39294926993925    7.46944181882424
H        -5.82584390155077    3.76414236381589    7.90939791581696
C        -3.85121075014414    4.54457175774609    8.08711820729310
H        -3.60435312917317    4.04367346626686    9.01483679398810
C        -2.21893139645110    7.75853298013114    4.93441071119486
H        -1.70189594508580    8.67692450986274    5.21919444866703
H        -3.27074154707988    7.99966654175502    4.80877805478376
H        -1.81543217591473    7.39663677738211    3.98461455876033
C         0.20382882448629    7.26236693987510    6.30485838030598
H         0.22331672375661    7.81136869003192    5.36696169170531
C         1.43746914988650    7.23433156867957    7.00792118097027
C         1.65338755267036    6.55828053909001    8.25309105855546
C         2.95351627110656    6.64439479297148    8.81919337534373
H         3.10102216709142    6.13205539435896    9.75750264144076
C         3.96755263634504    7.33298565344175    8.21775947486261
H         4.94181997404755    7.37381569324081    8.68214221892811
C         3.75251479858283    7.98764898606262    6.99857367076315
H         4.55605253016618    8.53011572547185    6.52494130022383
C         2.51663203805503    7.93164674723352    6.41922944006226
H         2.34277495855371    8.43647825630978    5.47819336009303

