67
CSD_code = JOWCIH | q = 1 | S = 0 | Stoichiometry = C22H38As4S2Tc(1+) | MND = 6
Tc        5.10990810755135    2.99743806377628   -0.00022141342110
As        4.96910811117585    5.47035093599952   -0.16487036815090
As        7.21808332053499    3.49028415444952    1.21438255803386
S         3.99417923159960    3.15985823370558    2.04899888360400
C         2.70891565437331    1.92114343947975    2.38699617832268
C         3.72590190719658    6.43949320139421    0.97950588093688
C         4.62080899754828    6.41013422863205   -1.85250786335911
C         6.66077098672540    6.23697454962077    0.45251368764365
C         6.91553628851917    7.60043289464587    0.35665219431805
C         8.10407830107247    8.12975203543202    0.82881416858358
C         9.04744899936444    7.29842831372083    1.41085307041668
C         8.79886836355437    5.94102121939376    1.51729882000263
C         7.61169133354399    5.39935854250764    1.03748918005423
C         7.27796897211646    3.31556859388543    3.15355165770419
C         8.92132602968292    2.61903370080957    0.77690551685640
H         2.99330441926317    1.38831390627215    3.29130764901468
H         2.59386540776291    1.22600369247693    1.55251319460228
H         1.77853817007132    2.45304103070590    2.57136251739955
H         3.89320695975878    7.51619778730462    0.90267859140248
H         3.86706183239070    6.12414165224169    2.01342562035194
H         2.69951980617195    6.21175171447754    0.68398559793932
H         5.32957559639158    6.10804482335469   -2.62378501819927
H         3.61110611451509    6.14788046467194   -2.18345112020951
H         4.67388758883904    7.49348487174503   -1.72094021522814
H         6.17513671885961    8.25543651685809   -0.09157078820572
H         8.29444989268127    9.18895717842451    0.74586862043086
H         9.97395889187609    7.70876340436894    1.78267250648818
H         9.53660993139918    5.29360085402397    1.98075540382575
H         6.44564787353501    3.86742218456092    3.59086151063230
H         8.21908609009695    3.70778144896497    3.54562181736728
H         7.18161371076693    2.26396345814687    3.43193898278715
H         9.13591649841257    2.69226821119823   -0.28947444877122
H         9.74841583660167    3.05754028803152    1.34014156031839
H         8.83797380276265    1.56114992845141    1.04471629740832
As        5.25084968459118    0.52381991693276    0.16489921522529
As        3.00200180084274    2.50421709300225   -1.21423882526789
S         6.22579848930951    2.83477602120347   -2.04906854591512
C         6.49425433456702   -0.44500025904259   -0.97949574371269
C         5.59924750535237   -0.41566725344307    1.85263706842631
C         3.55910413865183   -0.24247656196448   -0.45250374682021
C         2.60824565631472    0.59514766804544   -1.03755630363709
C         2.94199459341841    2.67894589908032   -3.15343529093713
C         1.29868437195843    3.37543197600418   -0.77695037970827
C         7.51114193571856    4.07339305895088   -2.38701544019134
H         6.32681863312261   -1.52167974565589   -0.90272752166533
H         6.35309334444811   -0.12955574248376   -2.01339138912337
H         7.52065816965622   -0.21736090288269   -0.68393882649933
H         4.89037941027531   -0.11360438018484    2.62382295647590
H         6.60892573982224   -0.15335719813032    2.18363024081248
H         5.54621032041686   -1.49900965387559    1.72098086644888
C         3.30437723975812   -1.60592955789035   -0.35668248675490
C         1.42107940317327    0.05348875149043   -1.51738945779928
H         3.77428512099203    2.12707443556214   -3.59077810088210
H         2.00087944065579    2.28679349175794   -3.54557976334528
H         3.03840473925938    3.73053559147522   -3.43185494078854
H         1.08407150937899    3.30206554792441    0.28941279097968
H         0.47157601928536    2.93703883308624   -1.34025276888513
H         1.38206932134457    4.43335322017988   -1.04460866818285
H         7.22676846832563    4.60624354473665   -3.29131635084628
H         7.62616329858926    4.76849883478707   -1.55250282478852
H         8.44150939912662    3.54146780908283   -2.57135783893552
C         2.11586320145777   -2.13524543942958   -0.82888805282458
H         4.04479224879886   -2.26093036195205    0.09151949237795
C         1.17249529625716   -1.30391666946647   -1.41092464193924
H         0.68331932828236    0.70092061502573   -1.98079456042956
H         1.92549121360833   -3.19444655607196   -0.74592733625881
H         0.24597687653672   -1.71424754973504   -1.78271325555552

