99
CSD_code = JOWFOT | q = 0 | S = 0 | Stoichiometry = C42H44Cl7N4ORe | MND = 6
C         3.65362006832083    8.17810643629089    9.97226220301007
C         4.74443997906207    6.79613159668144    8.59976273041738
C         4.87527138905851    6.31342081621505    9.86523471905235
C         3.72958374226238    8.74506011704206    7.54019935359417
C         2.63847614755023    8.44248509479639    6.72775120391095
C         2.40930269023803    9.25414597609771    5.62695302010901
H         1.55826617772090    9.04855295300776    4.99406027279522
C         3.23926189336298   10.32538241878191    5.32697566611002
C         4.33824302839949   10.57258235317971    6.13755347587579
H         4.99541645771082   11.39894454214754    5.90825625297129
C         4.60586371647721    9.79139390468245    7.25119009089830
C         1.73306438571695    7.29919144441225    7.05528341872904
H         2.29767886468413    6.37791817417453    7.19259366192728
H         1.00720105995362    7.14879544420748    6.26115183817169
H         1.19147242069125    7.50246680688485    7.98039993066091
C         2.93397156123022   11.21225987677338    4.15874601039924
H         2.54522926665830   10.63339361313752    3.32397217504966
H         3.82084807066080   11.75079904633163    3.83401658997742
H         2.17538409441753   11.94271609309507    4.44177270887807
C         5.76922655595108   10.08092927144652    8.14666447640404
H         5.42040985210251   10.44147726680504    9.11573051178874
H         6.40561115077248   10.84517512692841    7.70966796076986
H         6.36532032174620    9.18528784798426    8.31827782836813
C         4.22890541434807    7.00942021743312   12.10861086745085
C         3.22819948162395    6.26704666000065   12.73448318504095
C         3.34313906860415    6.03928253352573   14.09742055208989
H         2.57847283371075    5.46273266732505   14.59504515730579
C         4.41658198230544    6.52679705670061   14.82631888135255
C         5.39268104998095    7.26537383914650   14.17203919593391
H         6.23258213958731    7.64893946468240   14.73296248860854
C         5.32653651785077    7.51066737332973   12.81034619081922
C         2.06523778554271    5.74499745936111   11.95498069698324
H         1.46930576051889    6.58193801492214   11.58979365544619
H         1.43376889715851    5.12059431548494   12.58006768027287
H         2.39464541451668    5.16453266107655   11.09400301051800
C         4.55800164597645    6.24016285447786   16.29050395293655
H         5.43086131805926    5.61206545952776   16.46499600758309
H         3.68263649684875    5.72442517520869   16.67424371187572
H         4.70115118122020    7.16276674432742   16.84976796639922
C         6.40163992678686    8.28475335262869   12.11621777100473
H         6.77349677372630    7.75211734750143   11.24198176869681
H         7.23275781037187    8.46847823272039   12.79105740297364
H         6.00791302508460    9.24672484058919   11.78849958114255
C         1.07060823347051   11.18076102625363   11.84600770802766
C        -0.03892542228011   13.01627009995300   12.46468299913645
C        -0.10049728529574   12.12737103882647   13.49308017492953
C         0.87615455623462   13.05500774602299   10.20415017640611
C        -0.03814021616149   12.79573006715569    9.18329993507837
C         0.16088921729484   13.41824634432564    7.96010021881613
H        -0.52825309633250   13.21626388256642    7.15284230736265
C         1.22897522082888   14.27849767584262    7.75144507225223
C         2.09901291746230   14.53838787458001    8.80178979652558
H         2.92749590649995   15.21457936576205    8.64860984004680
C         1.93913213750123   13.94234209175838   10.04322559250005
C        -1.17033758577707   11.84121403337591    9.39827265100250
H        -0.79056810301617   10.82731083074413    9.53479320238664
H        -1.83684222507365   11.84105210618922    8.54030680268375
H        -1.74343469664841   12.10594265637656   10.28651282711042
C         1.45902137787123   14.91273741153740    6.41362688391185
H         1.66004716596303   15.97679665657746    6.52262544732677
H         0.59680702479900   14.78177798626774    5.76460955518954
H         2.32557544243843   14.45793521177061    5.93335627259605
C         2.88749120852372   14.21409250649059   11.16613767679585
H         2.35358431286730   14.51488179334500   12.06653283300167
H         3.58389832091362   15.00198283904718   10.89354442192977
H         3.46082988602733   13.31570861015134   11.39962691441328
C         0.62534403197074    9.83996157623990   13.91168935969849
C         1.67327902023881    9.66912557841661   14.81553877335521
C         1.62571328302896    8.57646967817210   15.66802090206836
H         2.42787948392141    8.43347836013790   16.37574754646446
C         0.57232768521950    7.67628184406077   15.63536977073684
C        -0.45205739238718    7.87420893833521   14.71993769413478
H        -1.27665583659922    7.17691560331969   14.68792582589112
C        -0.45316475555122    8.95556374487896   13.85432057729871
C         2.81478347669048   10.63248851172633   14.85178074724945
H         3.37229231904967   10.56811640208981   13.91695791585040
H         3.48874719275725   10.39790035385056   15.67037638740796
H         2.46426008736639   11.65762467090053   14.96525038778682
C         0.50480747718160    6.52141223593887   16.58820566699876
H        -0.35962627095053    6.62713826120015   17.24291066196636
H         1.39795744543420    6.47034783241240   17.20437877466035
H         0.39262849671281    5.58392116139412   16.04636313794856
C        -1.57899973139317    9.16930943123329   12.89320980979223
H        -1.98053702414475   10.17891218816662   12.97008116288132
H        -2.38015196867208    8.46096856803760   13.08384320535736
H        -1.22482212718734    9.01899907670931   11.87355443319422
Cl        0.41789727941961    8.47933090022392   10.12308390601335
Cl        2.30553053472253   10.81077684755920    9.02184291806551
Cl        4.30006527115231   10.98864696868046   11.50797954223311
Cl        5.35437444823850    6.21512993291635    7.12165480925196
Cl        5.67871522910390    4.93100204974028   10.44360287630297
Cl       -0.69541032382685   14.57787757478147   12.30681306868580
Cl       -0.83765881962347   12.25310774056240   15.02004714289328
N         3.99067932431384    7.94159810276432    8.68962038111859
N         4.20117219709030    7.17924685004212   10.69125920483507
N         0.68496720724870   12.41375048065644   11.46408768755701
N         0.58394296272239   11.00691590188314   13.08992434285983
O         2.40204385748818    8.85660215195217   12.28297538734937
Re        2.35997422275228    9.70794813484872   10.86125085840959

