82
CSD_code = JOWHUA | q = 0 | S = 0 | Stoichiometry = C41H33N7Ni | MND = 4
Ni        1.40203015766563   10.54645898471506   12.98090429820649
N         0.72489320839408    8.99511255164332   12.06797368807525
N        -0.25384299271974   11.48426310392247   12.61973861014147
N        -1.44954054985815    9.79865494273746   11.40046240052583
N        -4.45550669984961   12.95615954566736   11.30423294612955
N         3.05534121984665    9.61139793800562   13.33121341748368
N         4.27734382623452   11.30896285472632   14.53089646502799
C        -0.33463224424300   14.98405212264796   14.03191594087396
C        -0.50402031986082    8.89294416393916   11.47851657289257
C         1.32738227117708    7.78596003091836   11.87118170332360
C         4.13930916663356   10.12156585739386   13.99325270832476
C        -1.03993076682552   15.17942975232516   15.21968734822071
C         0.19436522120802   13.63863651791087   13.70720862977205
C        -5.64215079185661   12.93764835807339   10.73544943382177
H        -6.22940553303881   13.83951402693784   10.85788334077116
N         2.08514693496859   12.09442322613062   13.90477544885613
C         0.45524494658763    6.90182585682998   11.14604250959654
H         0.70928473060894    5.89506601591943   10.87539220782485
C        -1.32548226998220   10.99108695734805   11.92734683208199
C         5.19653591078006    9.14828863847539   14.05734879479289
H         6.14180887379958    9.32917732500133   14.52788371162427
C        -3.67417790022276   11.87736044026567   11.19537839059947
C         4.73928619702849    8.04275466083651   13.43188568514107
H         5.23205097688952    7.10301126395368   13.27208100704425
C         3.40506405441591    8.33903467805870   12.98280442283288
C        -6.13632351926880   11.85469573883199   10.02082229125335
H        -7.11697784329560   11.89088506580511    9.57199618617234
C         3.31996288574857   12.20249260917065   14.48526896449160
C        -0.59925988521426   12.75578150915582   12.98390698811093
C        -2.38133160924259   11.98491495590983   11.84530485958558
C        -1.52109040101216   16.44542989101723   15.51351190138771
H        -2.06716718854538   16.60236285237906   16.43305092565496
C        -1.90950445346109   13.07542900335172   12.51353661879550
H        -2.41145851923659   14.00974637963006   12.66660716744971
C        -0.68112251494055    7.58822924795855   10.89988204602512
H        -1.56851065897961    7.27837235360396   10.38531106897784
C         2.60359188568733    7.43950972710586   12.29295762011634
C        -1.31614224980579   17.51496721103321   14.65291888147935
C         1.46907404443558   13.29111987125961   14.12954340375450
C         3.48247400116777   13.49783454292695   15.09094076364707
H         4.37110877835656   13.80517500347100   15.60430864194929
C        -0.61505603688661   17.29728294226938   13.47570094755673
H        -0.44986287313425   18.12149435934529   12.79615198283280
C        -4.08099918167585   10.73666498913251   10.49798245048781
H        -3.41697373964854    9.89087609021055   10.43760766287015
C        -5.33031188995842   10.73243460722069    9.90510492365032
H        -5.67268356954859    9.86518642127055    9.35792651157649
C         2.92549548709531    5.05344402026839   12.91699694066905
C        -0.11994147014387   16.04367109845111   13.15086203973634
C        -1.86409062647633   18.87088601397249   14.98016797482326
H        -2.89991977923118   18.94269781273294   14.64681820216757
H        -1.29433632888595   19.65164873135974   14.48197564960518
H        -1.84461984494586   19.04826671932101   16.05320968196795
C         3.12148435009034    6.08307344398052   11.99736094818555
C        -1.26907109797848   14.02907481706997   16.15253636653853
H        -1.80863653598760   14.35234700113705   17.03900323977414
H        -0.32030123544617   13.59054760276074   16.46068950749327
H        -1.84738318064602   13.24945144712565   15.65720251600275
C         2.33397917740496   14.17125651406333   14.87115026758613
H         2.06589274394371   15.16734979383244   15.16645765886414
C         2.19329186175269    5.32099762772409   14.19708768264509
H         2.71938777462024    6.07107350784896   14.78734433974892
H         2.10356186876391    4.41297142133217   14.78797750892478
H         1.19448768911497    5.70553583905817   13.99226349362082
C         0.63248573076803   15.81671405103300   11.87476898520236
H         0.73834013503284   16.74465522500217   11.31869646059801
H         0.10854936159986   15.09370909384127   11.24993906341234
H         1.62497941895548   15.41674317301347   12.08066719783018
C         3.41841065136829    3.78996992098226   12.62594185632619
H         3.26849613794613    2.98989116478601   13.33716866037294
C         4.09838142376353    3.53429903034253   11.44471905165846
C         3.80089726017227    5.84769610335637   10.80112726337173
C         4.00085644593405    6.96425049739716    9.82141811136469
H         3.03951283881483    7.35252711802759    9.48558337761582
H         4.56031850587842    6.62198544091010    8.95460109489971
H         4.54334866443453    7.78734432679357   10.28575790003594
C         4.28064368206716    4.57402278908124   10.54220223170692
H         4.80850251361749    4.38545098514397    9.61795900487975
C         4.61511754050679    2.16300465098620   11.13069568460236
H         3.99275150585407    1.69399597321502   10.36825738881624
H         4.60627635583376    1.53101087865858   12.01509273283239
H         5.63141788508051    2.21456097893978   10.74470059431327

