65
CSD_code = JOWKUB | q = 0 | S = 0 | Stoichiometry = C29H25BN6O2PTc | MND = 6
Tc       11.77950423501277    2.93786118520163    8.41213027397700
P        10.31992767444753    1.08465412136018    7.90574999548662
O        12.54798828066025    2.10276645757073   11.26215906397733
O         9.59573055299428    4.75291272839311    9.57885856131441
N        11.48010528240091    3.61014693587630    6.40482941623248
N        12.52709220490705    3.82317986184365    5.60685465753887
N        13.22409613200525    4.48248209711956    8.41284503049762
N        14.04119107071912    4.63007400073382    7.36621415890959
N        13.41652740991811    1.81083534414155    7.64526160989518
N        14.16901528473685    2.28094449967411    6.65174557209397
C        12.22575194135954    2.39554243551017   10.18839305979305
C        10.39804820529581    4.05560286637152    9.11523537501905
C        12.11084669842129    4.24322617450734    4.40306769212095
C        10.73367052361488    4.30694318739410    4.42484816360836
C        10.38732817459836    3.90362624702011    5.71416367950501
C        14.87619521927203    5.65685088513973    7.58280760212008
C        14.58682440228382    6.19490681937039    8.81866099365572
C        13.53592768325387    5.41660587840476    9.30094905892870
C        15.14426847121434    1.40748521151463    6.36135817009870
C        15.01682413511876    0.32718168960301    7.20841728313770
C        13.91479895257124    0.63750763336129    8.00348751528622
C         9.54099455784233    0.01819780624952    9.17402824218587
C         8.85649824401612   -1.13884188999573    8.80865344480020
C         8.22462881835273   -1.90316200633443    9.77105948944035
C         8.25581592916429   -1.51189850591304   11.10078735318110
C         8.91280713110554   -0.34858193449186   11.46439489860282
C         9.55141577134614    0.41742963982735   10.50381066505808
C         8.75329216153393    1.38124578913637    6.99377177408088
C         7.86977937826658    2.26814362816589    7.60611078878561
C         6.64041023345923    2.53866622548796    7.03752154326219
C         6.27794447184158    1.92296448058435    5.84901670650163
C         7.14543470701799    1.03130802147012    5.24342724887072
C         8.37761591909185    0.75448013621421    5.81323099153960
C        11.16815040341459   -0.11743458268654    6.82593576584609
C        11.62593070810656   -1.34802038177903    7.28353226024057
C        12.40403242970380   -2.15026427214096    6.46723743045467
C        12.75162449264538   -1.72556021946671    5.19624679052084
C        12.31579917724189   -0.49229431981113    4.73824998876127
C        11.53352983662597    0.30695455769865    5.54909548467467
B        13.95549241677372    3.70624393165212    6.14028160581056
H        14.75269486640475    3.99865826190761    5.31527742982702
H        12.80869521085017    4.46693511350779    3.62180734200007
H        10.07616185905861    4.60229369791451    3.63348117635173
H         9.41319409625572    3.82478957357869    6.15543116020910
H        15.61170440587138    5.93607041054879    6.85582362621394
H        15.06297840218147    7.02403017881724    9.29940626259679
H        13.00271759715547    5.48742683974634   10.22925894968450
H        15.85601167708868    1.60751598772337    5.58623177684326
H        15.62771706853693   -0.55065212974877    7.24947904499589
H        13.47818083509888    0.07631839974218    8.80722620600106
H         8.81958951501926   -1.43716349380250    7.76938646746618
H         7.70175660092961   -2.80414417813906    9.48443055804759
H         7.76041269706433   -2.11161183212134   11.85004452837350
H         8.92711587073314   -0.03525865687240   12.49751732117517
H        10.06006585665415    1.33421836795588   10.76816841620366
H         8.16865005283019    2.74441793231370    8.53040266219672
H         5.96446825400564    3.23051739102526    7.51776676879655
H         5.31958998683572    2.13546365651138    5.39876988176535
H         6.86266372660479    0.54336212152343    4.32169972698647
H         9.03950019180543    0.04949034713858    5.33056852632322
H        11.37683224196408   -1.67476092711527    8.28339835987522
H        12.75088079376641   -3.10681422927099    6.83015334022955
H        13.36730446755046   -2.34929293266477    4.56528963357323
H        12.59301072649901   -0.15124705889154    3.75095419240424
H        11.19824367689542    1.27202479468245    5.19219723604640

