66
CSD_code = JOWLEM | q = 0 | S = 0 | Stoichiometry = C18H44ClP2Rh | MND = 5
Rh        5.18908762609152   -0.81981914742138   10.86100704585269
Cl        3.63544880981027   -0.84360308419447    9.14526854086304
P         3.68963569944497   -2.05304855915018   12.07058973933299
P         6.49910610824075    0.42340002034229    9.45468359806259
C         4.13852732993641   -2.64185028561840   13.79195970810034
C         4.37614866634369   -1.45835608117765   14.72474374074615
C         5.38564167911000   -3.51848870050194   13.76035735042358
C         2.05448143352960   -1.20045605883368   12.44312634354992
C         0.96287182328093   -1.42979373759558   11.40110210954592
C         2.31476608664839    0.30267014525456   12.54834479095468
C         3.15468078500350   -3.61179029395037   11.18574396901846
C         2.38459402240971   -4.61560989101749   12.03715895784495
C         4.34195360950951   -4.26698164551246   10.48406400825538
C         8.19907018082615    0.99530686932509    9.97988680018737
C         8.08842541315761    1.81041197092691   11.26434550316276
C         9.12220639372022   -0.19486611941876   10.21942016085784
C         5.63522991064328    1.99005715221630    8.88599841810248
C         4.75303742804980    2.52143519679678   10.01587075044029
C         6.50439576316287    3.11459979664864    8.33104214492803
C         6.74830955761154   -0.48909392114270    7.83521235378665
C         7.74337197102568    0.09096110716475    6.83652988626314
C         7.06134731241551   -1.95950153607289    8.11664281810561
H         6.36695933197055   -1.49250653639151   11.48738033370180
H         5.56939971503019   -0.00541755969470   12.04909998157559
H         3.29045311301809   -3.22476069038970   14.17045469618747
H         4.73182477529940   -1.81347303808880   15.69131858176229
H         3.46546289094547   -0.88962302090250   14.89330191450044
H         5.13384089983564   -0.79951958917245   14.30338903919786
H         5.73387020621423   -3.71350147056439   14.77394229068939
H         6.18113761763242   -3.01142015017531   13.21599214101753
H         5.19334328698992   -4.47607576497353   13.28474357265340
H         1.71030070347463   -1.58077621262271   13.41427950879978
H         0.11818002561887   -0.77661254776798   11.62004508532580
H         0.59914644996526   -2.45401443290172   11.39946112790142
H         1.32953594097488   -1.18097286172784   10.40726542730670
H         1.44313543403286    0.81683654938176   12.95238421391697
H         2.50961361900233    0.69876135801337   11.55241181590535
H         3.17377127250654    0.52496623707806   13.17886650104643
H         2.49534333130399   -3.23242957964525   10.39596165810227
H         1.93202161590037   -5.36744591418699   11.39110362398471
H         1.59008417251409   -4.13569134055657   12.60479530539438
H         3.04350200306440   -5.12964083546516   12.73318691343739
H         3.99448809593147   -5.03830727273533    9.79759791847272
H         5.03513325435819   -4.72167973654212   11.18695306703782
H         4.88341685708330   -3.51519399842192    9.90606139244428
H         8.60811324975698    1.62389511477535    9.18161197873988
H         9.07811246895591    2.11588185349469   11.60208730572534
H         7.62801276550639    1.20590904395130   12.04381732834140
H         7.48858055917135    2.70541876643891   11.12562136138195
H        10.03098008061210    0.13342503287605   10.72251002009382
H         9.41207462935091   -0.67584391107413    9.28943522444468
H         8.62550630412830   -0.92766828438467   10.85424396609098
H         4.97018108677796    1.63077507750469    8.08853425815949
H         4.04847220026783    3.25909862807697    9.63387946595620
H         5.34595883801833    2.98793936590403   10.79957976533172
H         4.18638052924425    1.70096959735624   10.46216612694342
H         5.85766974116671    3.89090513015698    7.92247477906580
H         7.16246138763975    2.77713814782835    7.53592369437018
H         7.11191486102455    3.56689721428215    9.11113583678203
H         5.74513147637375   -0.45039800173033    7.38800668992523
H         7.81215499177662   -0.57731016955422    5.97825151299230
H         8.73789529361935    0.18564895450331    7.26589359081099
H         7.42445861811245    1.06269880057412    6.47018593675625
H         6.82648838409131   -2.57052938551968    7.24599827090785
H         6.45839978548669   -2.31399383998794    8.95889455092993
H         8.10855052626350   -2.10944192409904    8.36525348749887

