89
CSD_code = JOWNIS | q = 0 | S = 0 | Stoichiometry = C36H48N4Pd | MND = 4
Pd        0.18702303685354    0.61021792923030    4.94887444382834
N         0.50690158104204   -0.64882340414808    3.38989523786629
N         1.63228382240656    1.86203515263764    4.23729767055815
N        -0.13957862685241    1.87406614552899    6.52414481853295
N        -1.26560913679151   -0.62669336618399    5.64070300497591
C         1.45623118924419   -0.52373540590383    2.43483648705487
C         2.41064799052814    0.50706829655500    2.37220000154681
C         2.47558266518327    1.57966701470235    3.20429226161856
C         3.56850176547215    2.62124751802502    3.09725879370333
C         2.99655217074108    3.77075065928752    3.93005406607936
C         1.93120760110957    3.06436392947364    4.74064187610064
C         1.37176904349729    3.65328532955319    5.85719860087465
C         0.42439030288912    3.07605563609655    6.67984480192311
C        -0.09760983104732    3.80131779755918    7.90241950246063
C        -0.82414763313881    2.68146466356764    8.65278719509172
C        -0.95484065292677    1.61485323047925    7.58455080919225
C        -1.79476742404683    0.55467483221134    7.72039939579675
C        -1.97003511190196   -0.48139852424951    6.78616778105845
C        -2.92953704171793   -1.53984706303503    6.91961339919279
C        -2.80100234280729   -2.32566470816427    5.80627511451872
C        -1.74260122872218   -1.75454068681554    5.02148511477722
C        -1.26032448174830   -2.28367145680715    3.83745598395378
C        -0.21167042157651   -1.77849504506331    3.08927559934549
C         0.30838967771763   -2.37858706349942    1.89221155766845
C         1.35833300687848   -1.59801704865080    1.48837525989815
C         4.88950879491666    2.06673004044686    3.65531800450402
C         4.75321875722120    1.49005602390410    5.06032995337417
C         2.35934414497514    4.87205436308129    3.06957936417605
C         3.40185889427569    5.75160040968494    2.39070652150985
C        -1.02744028522038    4.94950048430513    7.48423165273581
C        -1.41109415711947    5.84106102684014    8.65859618449538
C        -0.02448319451324    2.14033106306105    9.84667434635915
C        -0.03698432050891    3.09225881804747   11.03623851286496
C        -3.90727263643348   -1.68721644317368    8.03928612147298
C        -5.12447792952791   -0.78298721538456    7.83022501614789
C        -3.55229455519153   -3.57124355406568    5.46909527914825
C        -2.77993065255073   -4.81718292366767    5.91009622191068
C        -0.24113855510740   -3.60226926273336    1.23763670806442
C        -1.47303321396376   -3.27284406783632    0.39101125980585
C         2.22626420163715   -1.76546892321825    0.28491998979361
C         1.76354591788709   -0.86861795303158   -0.86556811773295
H         3.15298375539963    0.44154544952175    1.59082839211564
H         3.72998770681160    2.91172327633615    2.05634308933384
H         3.74820830395202    4.22843918409234    4.57847522573981
H         1.72800920326577    4.63715336202700    6.12748241206103
H         0.73159548341460    4.21702204853400    8.48093419676199
H        -1.81025658776151    2.99358171114446    9.00557242960176
H        -2.39157463178748    0.50868839912885    8.61925567075561
H        -1.73461619530426   -3.18221553305200    3.47334774928467
H         5.24472726366679    1.28131215559430    2.98435586755484
H         5.63405592218201    2.86705048276139    3.65643429785560
H         4.01605118090381    0.68781158666022    5.07708528796494
H         5.70700327561380    1.08523465195462    5.39150083273605
H         4.44157414618806    2.25221199383208    5.77094809593103
H         1.72628297197996    5.49415049297405    3.70645487722863
H         1.71589136660875    4.40750992447036    2.31877757317728
H         4.02046048803466    6.25114059436917    3.13355447605448
H         4.05139335335225    5.16354997338603    1.74665786100494
H         2.91645806133502    6.51106305851278    1.78230622514789
H        -0.52391744350156    5.55362966508189    6.72617981067818
H        -1.92543906444601    4.52854127051507    7.02602340860213
H        -2.08001580577882    6.63249390179577    8.32874215209186
H        -0.52566252513091    6.30079781301350    9.09319839141089
H        -1.91469886186606    5.27067705409876    9.43505553078044
H        -0.45317046504475    1.18263580685529   10.14983338783213
H         1.00409924519290    1.95327098365008    9.52892741759851
H         0.54751311774558    2.68001514047321   11.85543282252332
H         0.38395483252160    4.05881214368214   10.77019118302750
H        -1.05483235822071    3.24875051346748   11.38777544571572
H        -3.42691063325751   -1.43734783090623    8.98828339035613
H        -4.23654800519501   -2.72606721332145    8.10053716122863
H        -5.82848101921513   -0.89174573261842    8.65284208136084
H        -4.81782573171105    0.25857404314348    7.76772794808552
H        -5.63046942138625   -1.04296704473819    6.90307640493853
H        -3.73222354179912   -3.61690139361574    4.39263236279106
H        -4.52439448491027   -3.55600984174380    5.96557268308388
H        -3.33129131730302   -5.71952004900123    5.65348705011929
H        -1.80656344933836   -4.85222459932249    5.42630098446286
H        -2.62216768944560   -4.80033897869882    6.98619527020617
H         0.52267990830402   -4.04899801746254    0.59792639063857
H        -0.51024168703808   -4.34067509666638    1.99674552790805
H        -1.21160329100814   -2.57035344190887   -0.39682708055799
H        -1.87307954462445   -4.17466364795645   -0.06798597796304
H        -2.24737692234157   -2.81942063007608    1.00542600632172
H         3.26183852101675   -1.52503967595320    0.53799759831082
H         2.19963431398692   -2.80713495718435   -0.04137857541634
H         1.77598842311950    0.17580728144954   -0.56249142537902
H         2.41312268022525   -0.99012466628759   -1.73010238050828
H         0.74776602153654   -1.12470186065699   -1.15727532680420

