35
CSD_code = JOWPOA | q = 0 | S = 0 | Stoichiometry = C14H16Cl2N2Zn | MND = 4
Zn        9.62333631894836    5.77055954825281    5.70150106936509
Cl        7.82763513186837    4.89534294895332    4.71902632508258
N        10.57196657280031    4.18209328079088    6.83139011466459
C        10.67471313523252    2.89455410366774    4.78954451644541
C        10.95979329074071    3.05220268095792    6.23856588269932
C        11.62169743541168    2.06057430264447    6.96076275525182
C        11.88845775805093    2.25713334058996    8.30135956025975
C        11.49502188558146    3.44733893151956    8.89308617669825
C        10.83810197304207    4.39227556987605    8.12050400420660
C        10.39254947679385    5.70669576661684    8.68339057806173
H        11.06322607911017    1.95359193628912    4.41098771107880
H         9.60022015912001    2.94017938453025    4.61221080196228
H        11.12566910556929    3.71938952377037    4.23689079122513
H        11.92333854050377    1.15173349581374    6.46494317196703
H        12.39988284184355    1.50118526131560    8.87821112081363
H        11.69675708189746    3.64346827010755    9.93415512690795
H        10.78281148361794    5.83464421495579    9.69296799558012
H        10.82062323997152    6.49096939223408    8.05303055064403
Cl       11.41941231868771    6.64605970246511    4.71994738127490
N         8.67445987033551    7.35886260171309    6.83139384780967
C         8.85401340648531    5.83433254946983    8.68343801988124
C         8.28660543607958    8.48873524747041    6.23855351678920
C         8.40839493554548    7.14872398670061    8.12053033452524
H         8.46382759133510    5.70642276432665    9.69304928782620
H         8.42590051315374    5.05002690570644    8.05314274687492
C         8.57163327295400    8.64635094545197    4.78952192685237
C         7.62471261339790    9.48037401927387    6.96074936960703
C         7.75150990048014    8.09367951297715    8.89311683375333
H         8.18311057578286    9.58730555584674    4.41095910456083
H         9.64612236745814    8.60072499173321    4.61216756426577
H         8.12066411775534    7.82150610106385    4.23689610938139
C         7.35802209332315    9.28385701953867    8.30136636862744
H         7.32301645279032   10.38918513326396    6.46490994694868
H         7.54987267459681    7.89760307726235    9.93421015261191
H         6.84662034973357   10.03981793284992    8.87821923549419

