31
CSD_code = JOWVIA | q = 0 | S = 0 | Stoichiometry = C12H12N2NiO2S2 | MND = 4
Ni       -0.00002079225656   -0.00002056443059   -0.00001231659122
S        -1.40145403926827    0.98268493645393    1.51382868754249
O         0.19037118010310   -1.38742504636851    1.17088672509972
N        -1.91075568981148   -0.26454941044053    3.81530896388569
C        -1.25939416621832   -0.28597840064712    2.63880543568495
C        -0.41978759672342   -1.39694508376841    2.30639611421757
C        -0.32133917719631   -2.42247478651640    3.24656681757268
C        -1.02478228378248   -2.33959290916502    4.45006195400078
C        -1.82222247555429   -1.26032660041142    4.73822791721896
C        -2.60856971273734   -1.08672974730044    5.99517420880671
H        -2.49370330205972    0.54330910831161    4.00606873797591
H         0.30224286404001   -3.27448935718259    3.03016211391488
H        -0.94060462380893   -3.13923642908984    5.16814995454796
H        -3.67109242223826   -0.98798210469032    5.77325047831242
H        -2.29090088993926   -0.18997026200962    6.52707221051445
H        -2.46965581948715   -1.94253756751590    6.64791826786613
S         1.40143245585315   -0.98271755069763   -1.51386232539794
O        -0.19044828194924    1.38735949294194   -1.17093275854091
C         1.25937169088930    0.28595286204783   -2.63882873380320
C         0.41973299002441    1.39689797931985   -2.30642873721391
N         1.91075922611205    0.26455954874151   -3.81531662694790
C         0.32128582621813    2.42243833870294   -3.24658610450233
C         1.82223176701598    1.26035178461564   -4.73822302392699
H         2.49373305274182   -0.54327889327830   -4.00607810100627
C         1.02476210026169    2.33959487898408   -4.45006398696605
H        -0.30232462898581    3.27443336008543   -3.03017825001374
C         2.60863558202935    1.08677902546775   -5.99513853071307
H         0.94058829500898    3.13925482216262   -5.16813410724524
H         3.67114607421210    0.98803931403534   -5.77314521821161
H         2.29100115889389    0.19001733036296   -6.52704711018357
H         2.46976163861287    1.94258193127920   -6.64790265589741

