44
CSD_code = JOWYAV | q = 0 | S = 0 | Stoichiometry = C9H27Cl3NbP3S | MND = 7
Nb        3.50655638065420    0.35980152421186    2.72963024629205
Cl        3.17987634953545    1.27428980928894    0.44995800599710
Cl        5.17742840271783   -1.26281878448284    1.88603173746503
Cl        1.67950449455838   -1.27707802440425    2.39023888970239
P         1.30917177622759    1.62007200958186    2.67880078287333
P         5.59876638969050    1.63675193292731    2.07282464101101
P         3.76158283112173   -1.49157345652716    4.44546777881820
S         3.77155067008270    1.62315368621256    4.60078626920940
C         1.51723157996919    3.43454916187851    2.61917927326570
C         0.06480671291215    1.35118316322540    1.37355071082691
C         0.30797032535954    1.39258797195755    4.19047385032138
C         5.38340081085318    3.45091877137891    2.10756756242257
C         6.41612169800446    1.39826210099545    0.46062378003849
C         6.98934089981439    1.38915808631650    3.23228251169531
C         5.33444026106179   -1.40912601713465    5.37215356644343
C         2.51817325649795   -1.41554144555690    5.78227575162894
C         3.69829589127535   -3.25561824522085    3.98868637537241
H         2.15354415620702    3.74121156357890    3.44968816244979
H         0.54626626803270    3.92485712415117    2.69035566335223
H         1.99590101657128    3.69732526855464    1.67542031044524
H         0.50128811061356    1.57475085818959    0.40158490678507
H        -0.78056083004854    2.01370545978257    1.56432824264860
H        -0.26361199689122    0.31335043386903    1.39176029219437
H        -0.58807727897892    2.01168880559655    4.14210244617477
H         0.91097561311438    1.67228139704771    5.05471753711736
H         0.02777293307012    0.34139131419288    4.26534661940239
H         4.63332714342109    3.72572802175891    1.36542350263546
H         6.32842721592308    3.94356805061559    1.87817631069255
H         5.03915940051297    3.74303513335942    3.09996155781146
H         7.31763815825305    2.01207939459728    0.43883741211331
H         5.73988495992076    1.69987305589060   -0.33748949369384
H         6.67745671459263    0.34893125836641    0.33478835383733
H         6.65332749045298    1.63803484619755    4.23920799783407
H         7.82902864933089    2.02452385679746    2.95016350519599
H         7.28917167010995    0.34149067132899    3.19529365437532
H         6.15687083538737   -1.56925564902085    4.67432511651997
H         5.35228279138488   -2.17568435757962    6.14704461733704
H         5.42390242822643   -0.41991728508591    5.82184293905435
H         1.53134713021184   -1.57708658988257    5.34746165077328
H         2.55783194501111   -0.42736768368601    6.24121187573999
H         2.72401061239155   -2.18365233226962    6.52796800056827
H         3.84173535974652   -3.84915909622054    4.89267959766584
H         4.48621133212546   -3.47503794519048    3.27017866581901
H         2.73076944096921   -3.48203781958664    3.54378882176688

