66
CSD_code = JOXDIL | q = 0 | S = 0 | Stoichiometry = C22H33F3NO5STa | MND = 6
Ta        6.39803316687274    3.75394350131169    3.29499204776695
S         6.12741527331447   -0.20515142249089    6.18617010899754
F         7.84162556831123    1.27626091835984    0.47755154778816
F         7.91820463056623   -0.71443434044151    1.29034357180412
F         9.66515144749014    0.53195656022654    1.35056799411689
O         8.06725884594636    2.41832648405630    2.86773976085291
O         6.73079897715409    4.70829496404388    1.72414151491107
O         4.89399036807909    4.62285271698659    3.95596354337453
O         5.43144369151423    2.39527312635638    2.55784264076097
O         7.56833727592519    4.70307285630001    4.30648537634733
N         6.50400270863766    2.14475579445729    5.16836415082448
C         6.70515491768135    0.87606610007260    4.92180215278646
C         5.91626670220848    2.35547014809038    6.38349350964807
C         5.62822394208078    3.59981550566207    6.93893937618586
H         5.88434303854444    4.48137529647789    6.37186637856926
C         5.03478439087787    3.64773587121688    8.18309695921161
H         4.80403800056782    4.60313722970620    8.63004416919568
C         4.72822695201507    2.48087936017335    8.88186350555553
H         4.26218674162006    2.54748175175711    9.85294286028405
C         5.01916102652675    1.23753405699045    8.35343401255628
H         4.79309171896183    0.33137331655148    8.89236174696812
C         5.61824661877693    1.18343346632236    7.10635264287674
C         7.30583188084874    0.34706844819364    3.75773290104091
H         7.27779067352557   -0.71989585227854    3.60916232861685
C         7.87352696504637    1.16405536987539    2.81715523915990
C         8.33227673447450    0.54663027921625    1.49367544416834
C         6.30978811268876    4.56362384582835    0.40389980563859
H         6.34638932383680    3.49007643183582    0.14709386367138
C         4.86191587773005    5.05209687914857    0.26456588668442
H         4.48121338060869    4.84052225674245   -0.73168773537404
H         4.81495892607822    6.12419713081312    0.44501217594097
H         4.25006116133754    4.54346108595493    1.00792839071129
C         7.24412154160057    5.33080239298737   -0.53808053011594
H         6.93483534347236    5.19337205808332   -1.57068711276593
H         8.26020329341323    4.96556194740366   -0.41871802069050
H         7.22458455015866    6.39062035619262   -0.29488614770400
C         4.25701227157902    5.86232418208590    4.00346493232760
H         3.58682973185577    5.92581015717609    3.12452203440720
C         5.28928670794682    6.99092486260589    3.91364490658198
H         5.91412383654189    6.82408477844546    3.03752348165206
H         5.92446926374710    6.96996556506439    4.79592356594944
H         4.79711155482588    7.95803071268273    3.84213474186338
C         3.39689506212061    5.99771462302997    5.26761879469041
H         2.81198244193291    6.91281808383392    5.22457286680182
H         4.02900315518341    6.02175234464239    6.15065045168769
H         2.72309260818400    5.14875369623469    5.34829460723928
C         4.37965034744170    1.50569412240193    2.40970369775685
H         4.62155880720027    0.58871361135103    2.98376884748966
C         3.09512704773164    2.11296535588892    2.98911362577858
H         2.76957879632276    2.94674845406552    2.37123275372527
H         3.30130194168361    2.48928032743106    3.99000580666136
H         2.30565175080665    1.36690633350380    3.03193582310997
C         4.19271926560705    1.11293979311704    0.93863160503118
H         3.95126497676728    1.99523669663021    0.35105120382941
H         3.39071831609003    0.38562714020916    0.84336962653307
H         5.11179531293572    0.68115906031778    0.55104760619998
C         8.88963965053063    4.98065196643613    4.62271966754183
H         9.34015975965863    4.05505920039736    5.02910269849134
C         8.98458429802006    6.08240746111729    5.68768769671114
H         8.55907949840693    7.00442572575734    5.29854808613396
H        10.02258566652860    6.25652340611179    5.95814946495849
H         8.43205853016883    5.78834052479119    6.57704774667569
C         9.64306066533761    5.37674900370893    3.34842448019322
H         9.52176149817438    4.58371182099247    2.61425970918338
H        10.69932457444291    5.52886082385545    3.55558142203276
H         9.21388889373464    6.29107427393148    2.94504198839494

