66
CSD_code = JOXDOR | q = 0 | S = 0 | Stoichiometry = C20H35F3NO5STa | MND = 6
Ta        6.17412293406488    3.87545040422240   11.22537324127111
S         6.37798043243580    7.57605946384603   14.62374186565221
F         9.21816271975432    6.80950156760679    9.24366158391883
F         7.51287617917542    8.09915339866457    9.42520811851974
F         7.25131494333007    6.04700853814746    8.80132407019693
O         7.87669563131192    5.05068156933269   11.11300121841157
O         7.20891282077147    2.72463780251421   12.20687361781248
O         6.48432956476826    3.03785768624989    9.60091748804591
O         4.58870466781452    3.02952369545556   11.73978125493276
O         5.27874735348548    5.38051702520921   10.69956234787148
N         6.40531122930878    5.32956684509962   13.39669360058576
C         6.73534884921288    6.58582324494235   13.23121021640993
C         5.87738843727442    5.07958862947442   14.62588056420763
C         5.77216150365159    6.16713100823451   15.44333138723374
C         5.46988651792723    3.69274396624428   14.98913095681183
H         4.39531816446157    3.64750928003818   15.16175904695107
H         5.97400308867291    3.37474565521243   15.90126346690680
H         5.73468199312747    3.03238026207306   14.16648339886839
C         5.24305637029752    6.21940165878319   16.83239516522030
H         4.27117370299847    5.72986845567707   16.88514028627828
H         5.13820392455194    7.24973972051714   17.15975782927203
H         5.91641484720906    5.70455342170004   17.51868894786174
C         7.26820954230494    7.14431263248910   12.03840708402832
H         7.24639670462261    8.21317123287147   11.90784851699960
C         7.70845582106235    6.31988584422200   11.05062616888049
C         7.93887773650947    6.84788548524416    9.64563392615367
C         8.53245923047283    2.37406310265822   12.43371851348979
H         9.09856310231273    3.30965551834182   12.60186828915085
C         8.67102293514012    1.48149176797174   13.67465729592057
H         8.11173641146775    0.55989737754630   13.52973892628366
H         8.27739189729495    1.99536014796895   14.54778052357309
H         9.71588023957859    1.23789793114560   13.84777453946832
C         9.09717355379513    1.68049373225973   11.18865178642438
H         8.61355721364329    0.71524879392125   11.05476997954633
H        10.17089750906668    1.53784469010137   11.27955355237980
H         8.88000935124823    2.30464128112984   10.32431053423187
C         6.16326575519618    3.12411775006068    8.24905164545103
H         5.78062902441831    4.13882934272377    8.04665190546240
C         7.41579558175224    2.89138845657233    7.39612360903146
H         7.17720191734967    2.98983766766502    6.34054741165719
H         7.81086334772916    1.89574995433788    7.58463481751639
H         8.17316176486072    3.62414511849476    7.65998789344567
C         5.06715985800173    2.10727737623242    7.90232881882441
H         4.74450887581395    2.23652560130917    6.87256607875273
H         4.21892710699200    2.25251924826697    8.56703743194279
H         5.44550993528796    1.09589135108599    8.03242799211682
C         3.93944174385552    1.79475790732337   11.73752072846162
H         3.25804149933110    1.77781492482412   10.86361302238586
C         4.94988582955597    0.65353339140697   11.58936551083118
H         4.43872905853555   -0.30169729369082   11.49501254515655
H         5.60076290061681    0.63780389576255   12.45974720364960
H         5.56254423033199    0.83849686849045   10.70957192804553
C         3.08791104230204    1.60944002191396   13.00174627597196
H         2.48527045854851    0.70881067868642   12.91662407222355
H         2.42871406417087    2.46389642593194   13.13304638241721
H         3.73114690230519    1.52464014951156   13.87284936449712
C         4.07578477215883    6.05742273053411   10.55341353230057
H         4.28184340113917    7.07851149406360   10.18120441857129
C         3.19276243586021    5.31938004689445    9.54041203252408
H         3.68908565376255    5.28844122635274    8.57379445381486
H         2.23067553012482    5.81421386083515    9.43357655834805
H         3.04715241612752    4.30077378593954    9.89499492091550
C         3.36439866388266    6.14842841722723   11.90994159826715
H         2.37036120981389    6.57277449838688   11.79405836844769
H         3.93610445922054    6.77051304515311   12.59398971880297
H         3.29473343682832    5.14276922059765   12.32154045038718

