105
CSD_code = JOXFOR | q = 0 | S = 0 | Stoichiometry = C38H64NiP2 | MND = 4
Ni        1.81848451061151   15.26832277305180    0.66588314435150
P         1.85275809950468   13.31611993036301   -0.39699874986102
P         2.84614145775468   16.88730684395522   -0.47161305249422
C         0.59687492840239   14.92485716630297    2.30204381139128
H        -0.43197687834770   14.83925362622668    1.95260283953782
C         1.21171149292570   16.18583366936272    2.36390042140105
H         0.65909072729669   17.07995075789064    2.07864555593356
C         2.40905246806247   16.33786791152183    3.12675871150622
H         2.86262923242191   17.31876795794804    3.19204679879922
C         2.96148256598644   15.28948765217545    3.79173153027260
H         3.87120854568559   15.41671559426387    4.36311302738168
C         2.86005997887923   12.94600122513483    4.52350999142927
H         3.78250693555354   13.08327654356824    5.07296122704028
C         2.75551723166788   10.60610617726415    5.28491369129404
H         3.69904762250537   10.73520125659091    5.79759897444730
C         2.09894789120588    9.41162366736786    5.32780673980548
H         2.51439916141620    8.57801669287988    5.87568584000612
C         0.87028543189067    9.25154695189885    4.65964206432359
H         0.36457888783196    8.29758926036610    4.70666580763392
C         0.32480934631857   10.28792890136186    3.96111091500253
H        -0.61822682936955   10.16754840491866    3.44504139810756
C         0.45024229756944   12.61761992413143    3.17215482479647
H        -0.50596775838332   12.49751336291310    2.67879518326389
C         1.11618798989722   13.83121761507629    3.07511644186059
C         2.33805259406186   14.00811682010217    3.80078888074183
C         2.22120066746697   11.70404762846158    4.57138459243083
C         0.97781693476152   11.54082412497476    3.88974246441251
C         0.47675488651949   12.08163041857125   -0.39778918572151
H         0.24331134843564   11.88928887921073    0.65131654229002
H         0.80874410889894   11.14124288561864   -0.84226483102668
C        -0.75908588740268   12.62509220830675   -1.10523365886886
H        -0.54917248776662   12.74599301222794   -2.17106418213677
H        -0.98992624861369   13.61444718252219   -0.69861965212606
C        -1.97292913661897   11.71500167065771   -0.93783937132423
H        -2.20015904250310   11.60775924329760    0.12527978733998
H        -1.73567242238869   10.72112288454596   -1.32574160001709
C        -3.19462148520618   12.26579230168597   -1.66350759312939
H        -4.04969368424277   11.60665117977432   -1.53319291404940
H        -3.45600646785744   13.24822224156969   -1.27616686330729
H        -2.99489037689192   12.36186790080841   -2.72886462450994
C         2.43900453249461   13.25327998228904   -2.15988530112197
H         3.43945917113418   13.69659398658672   -2.14528999857304
H         1.80051385543560   13.93373095607613   -2.72797211855272
C         2.48435141477694   11.90118793698957   -2.86169714809763
H         1.47224457319193   11.51794319242891   -2.99950826901748
H         3.03774780863634   11.17759954631370   -2.26014017867775
C         3.15181447862924   12.01667964780804   -4.23194070343085
H         4.17359865759434   12.38331634232158   -4.10767564577625
H         2.60956247515523   12.74792709541984   -4.83647511699305
C         3.17982390213625   10.67917841478073   -4.96162351856309
H         3.66217047743111   10.78085944563897   -5.93093146326207
H         3.72790930237234    9.93970958384950   -4.38167549243888
H         2.16902334098403   10.30892154804900   -5.11891855097682
C         3.14644157382429   12.32738456511258    0.47575904426559
H         3.50805890912884   11.49790140662530   -0.13559401776286
H         2.68038171806104   11.91372800839126    1.37400857609354
C         4.28563393149020   13.25653951142405    0.88327356516935
H         3.84002186790493   14.15828394856298    1.33794081755943
H         4.83877496749046   13.57627743098249   -0.00382413965030
C         5.24168797082650   12.60428100148799    1.87452149689167
H         5.68756197578690   11.71675472070287    1.41681301256727
H         4.67574016670480   12.27729213299564    2.74941327156648
C         6.34437377146074   13.56022020662099    2.31062493234944
H         7.00588773466074   13.08365767919425    3.03056553124633
H         6.93836896463692   13.87362598386523    1.45448224419593
H         5.91175639206311   14.44495286790107    2.77269001420542
C         1.84404068063716   17.07717896697291   -2.01689744976381
H         2.15837305503543   16.28750627358612   -2.70073157385127
H         2.01519133546431   18.04053906501248   -2.50089033371825
C         0.37423293224256   16.90297951733157   -1.64228899054163
H         0.08863420127387   17.70488676493072   -0.95630385084908
H         0.27631857317402   15.94816894197078   -1.09457663957345
C        -0.58215300435241   16.92762587613936   -2.83281510133550
H        -0.43948696467730   17.86010391229648   -3.38571429067231
H        -1.60760414918543   16.92348684817158   -2.45546699620202
C        -0.40663821468839   15.74780060916365   -3.78085155711028
H        -1.16523385704642   15.77385310861868   -4.56014117812539
H         0.56886195664849   15.77101182286195   -4.26087543064239
H        -0.50623953493569   14.81222092257764   -3.23588998193448
C         4.55308577902510   16.79771621276769   -1.18109035190959
H         4.69367092951271   17.57544195189937   -1.93539113688802
H         4.63481290291595   15.82850546624855   -1.68039356617298
C         5.60760891051167   16.89502185774134   -0.08320725343496
H         5.36036404175921   16.18360999774618    0.70875868879892
H         5.59018510940327   17.89453581552964    0.35582496463555
C         7.01350800392080   16.60938710368659   -0.60566682769225
H         7.22232422744220   17.26259455580587   -1.45715638251600
H         7.06494100653251   15.57775856310342   -0.96251727524311
C         8.07075353280353   16.82975706639839    0.46973298270706
H         9.06258615653364   16.59947047099236    0.08741137228135
H         8.06437368774446   17.86555724817085    0.80284061253563
H         7.87722882487158   16.19429116219263    1.33086892483637
C         2.80081496914053   18.61842061412366    0.20103698747843
H         3.32144882575672   18.59102472126508    1.16197046236340
H         1.74720648402090   18.81117956140038    0.41717829124829
C         3.37102344685349   19.74682448830637   -0.65140832315184
H         2.88699872706778   19.76930243518413   -1.62930324043854
H         4.43764186814624   19.58266484237729   -0.81183283243481
C         3.19069190753467   21.11566775185114    0.01159575674144
H         3.77716916194375   21.85026514301139   -0.54610023962045
H         3.58859481249944   21.08060141000397    1.02855407204405
C         1.73884694969163   21.57891629747676    0.05061129023227
H         1.67627321130300   22.58800054794470    0.45147253736739
H         1.31306074495216   21.58193465043790   -0.95082665513269
H         1.13410619676799   20.93068584313415    0.67949474427804

