83
CSD_code = JOXLAJ | q = 0 | S = 0 | Stoichiometry = C38H32N6NiO4S2 | MND = 4
Ni        4.22614098920541    3.35515351510067    2.82151230494964
S         5.71620685513890    2.02416531121473    1.19321168451055
S         1.86559512104461    3.79802906633581    1.87925022571357
N         5.24912269734707    1.87399270001225    2.78970583585667
N         5.02165952416504    0.68630736563769    3.24532358876158
N         3.63359133471075    2.65437090991515    4.82693541100591
N         3.05892133926013    4.70647844210449    2.55864368592424
N         3.14130742694264    5.97732644283285    2.31010740936989
N         5.56489832447346    4.94811741753674    3.50292782529919
O         5.46695143736455    3.42972235944023    0.93134050551552
O         7.05565540505394    1.54938837096283    0.98395508497638
O         2.35088001240975    2.43333038500849    2.03327221189583
O         1.46686175907339    4.21646239980387    0.56808259221587
C         3.47245602286881    1.33206029198584    5.02906244472995
C         2.49445254898515    0.86344860484440    5.92568763672632
C         1.73717469054630    1.75986775016105    6.64285930554564
C         1.96041698063695    3.12225345256584    6.46727567619827
C         2.90715515067028    3.51227948820656    5.54077280747165
C         4.29000803979605    0.39110129785066    4.27501093791013
C         5.39654830287536    6.25552182441032    3.23565109626008
C         6.36699263433600    7.19069204478973    3.63615390148121
C         7.52527449687931    6.76167397143628    4.24329715892511
C         7.70062384418731    5.40144017652358    4.46754933263605
C         6.68521700552384    4.54122818150342    4.09454627954976
C         4.16836493901700    6.71456827648654    2.58930228186412
C         4.58234162984023    1.01947048660800    0.25423379456823
C         4.71649724694844   -0.35476238586788    0.31224317214182
C         3.79368223044463   -1.14846693249628   -0.34497751206901
C         2.74075621980635   -0.57416516247026   -1.05236417133468
C         2.63685722929062    0.81158075766003   -1.10298696310374
C         3.55589865480471    1.61479097484527   -0.45025917873977
C         1.75280534086181   -1.44063845571127   -1.77266360433191
C         0.49583686585680    4.01998213296394    3.00975559107420
C        -0.03828159682898    5.28732825512489    3.15969393850704
C        -1.03680124265792    5.49531294588967    4.09255352846427
C        -1.50563575308249    4.44474415959137    4.87858912466801
C        -0.95451376109468    3.18024110158504    4.71007210887336
C         0.04930532085789    2.96595434297270    3.78045925202265
C        -2.59793094141280    4.68299381256010    5.87545924231998
C         4.29751548060703   -1.04113655219292    4.63094900286011
C         4.12691366297633   -2.00038465562947    3.63614949515926
C         4.17201698463471   -3.34728219049838    3.94464334996805
C         4.39141614789008   -3.75656412336151    5.24978695807994
C         4.57237347267494   -2.80981236513373    6.24439263419371
C         4.52799402020401   -1.46156324752155    5.93929354092863
C         4.01179584465256    8.12581819496389    2.18470135722516
C         2.86038602071668    8.82277066096720    2.54001226873880
C         2.67649120177179   10.13131245750227    2.13291024620455
C         3.63686319186494   10.75997756193659    1.35799008918850
C         4.77584588655501   10.06758538770746    0.98124924026080
C         4.96302019505231    8.75909079498427    1.38782640201307
H         2.33928900668018   -0.19814654597051    6.03493715561693
H         0.98409153804797    1.41096546392640    7.33450783497927
H         1.40360809810539    3.85777010855498    7.02484930708171
H         3.10876271637465    4.56153542955272    5.36378916013727
H         6.19262910956605    8.24224145325468    3.47384003040544
H         8.28073074505476    7.47296354656555    4.54423236225084
H         8.59570102135295    5.02073665069457    4.93184188513555
H         6.76278864588251    3.47801585242845    4.27872151675225
H         5.54236007248773   -0.77549809502040    0.86424346262280
H         3.88571858598495   -2.22472906511533   -0.30702981715580
H         1.82573788170122    1.27083001098104   -1.64819475158529
H         3.47637519825437    2.69007962687430   -0.47897806757308
H         2.13715038161527   -1.69647596507524   -2.76055343048016
H         1.58079254982102   -2.36754630015877   -1.23034364359866
H         0.80559390115366   -0.92363501054204   -1.90256007082093
H         0.33790422613449    6.08723407952190    2.54136059851631
H        -1.46137695858051    6.48077839751411    4.21749094705400
H        -1.31089676146737    2.35682138327741    5.31158953674038
H         0.49505499836712    1.99354277866324    3.64042777741602
H        -2.40791228089690    5.59045253823723    6.44482470482505
H        -3.55006342348810    4.80824086402503    5.36034740743292
H        -2.68946641251281    3.84632125954272    6.56281510061939
H         3.95055241573162   -1.67073151943946    2.62391028414705
H         4.03455158970122   -4.08308191192234    3.16555645018612
H         4.42644256223605   -4.80878648388427    5.49084073302657
H         4.75576725499520   -3.12394620416170    7.26184135785125
H         4.69195009186205   -0.72695987470802    6.71493850448926
H         2.11500757313805    8.32513132260596    3.14245490312951
H         1.78138980189126   10.66416041530860    2.41973863547507
H         3.49454209917581   11.78250736068294    1.04076219445298
H         5.51868404450543   10.54752263372137    0.36077386918088
H         5.83821329123466    8.21282779614298    1.06767392837892

