98
CSD_code = JOXRIX | q = 0 | S = 0 | Stoichiometry = C45H41Cl2N4O2P2ReS | MND = 6
Re       -1.24109733016431    8.21373792009745    3.54213477438082
P         0.18303991701381   10.17237653427669    3.24682491881825
P        -2.67674378638228    6.22723272913221    3.63958388924377
S         2.40057550826019    4.79402154309121    6.68642380610212
Cl       -3.06322309656008    9.70515758124563    3.14725779293503
Cl       -0.90408369777164    7.66925717204591    1.36780602750559
O        -0.83362067377533    6.32758465865258    7.01513541645687
O         2.87334122626604    5.22476074714630    4.11592116597255
N        -1.53096227648215    8.42556319315844    6.49179267258160
N        -1.35858375987791    8.40623250080768    5.28850914182737
N         1.06105206033831    6.25609768601348    5.00563834152588
N         0.63814589382792    6.75378975359334    3.75392751663852
C         0.28268795000888   11.22285553135995    4.73155575857854
C        -0.90671193798107   11.47572929781276    5.40997173322674
C        -0.90678161921138   12.28812201686089    6.52827512663834
C         0.27567175938483   12.85448606131245    6.97627027285547
C         1.45885411993623   12.61121825362478    6.29905256787702
C         1.46665670941185   11.79994922375028    5.17809757178688
C        -0.20300705146036   11.39230542296533    1.95109893708064
C        -1.04738576488243   11.07470911958493    0.89457550251869
C        -1.30489123284384   12.01059960433253   -0.09165526097040
C        -0.72189974581890   13.26411226597045   -0.02981064040720
C         0.12225263198676   13.58409041263206    1.02239312332613
C         0.38215221172512   12.65542773953561    2.01167327526068
C         1.90882008335928    9.72736227649455    2.90210678503428
C         2.47238180425496    9.86834836287159    1.63982419097243
C         3.75873541501633    9.41249691170444    1.40515236008489
C         4.48347309848116    8.80973116166066    2.41987258154821
C         3.92197623904091    8.65579772366865    3.67877307860642
C         2.63697935381075    9.10438781699442    3.91846607456339
C        -3.65145283962383    6.08404209274083    5.17271726697395
C        -4.20239557272151    7.26607988092231    5.66316860333841
C        -4.92526517085225    7.25983038673017    6.84084268518941
C        -5.10738706728217    6.07547397409163    7.53584832122054
C        -4.59197558323198    4.89358949071161    7.03210022386696
C        -3.87168741121468    4.89145289095659    5.85050775570776
C        -1.71133488643020    4.69387119934243    3.50424179038336
C        -1.06483312220004    4.15979654802836    4.61877557579478
C        -0.23167392853564    3.06444093497404    4.47644829133325
C        -0.01763198984546    2.50773069038243    3.22571167604821
C        -0.63917707398315    3.04955930856040    2.11166069830523
C        -1.48076071619150    4.13908965839555    2.24623759240535
C        -3.97514858134617    5.98984833514991    2.38660954223468
C        -4.30795497069904    6.98770672102186    1.48159183922182
C        -5.30989730638008    6.76784737193476    0.55139401082308
C        -5.98247355257448    5.55908330970702    0.52521097850482
C        -5.65911302161328    4.56468308364897    1.43668462622629
C        -4.66113899248472    4.77675859156641    2.36687075381450
C        -1.40024593629891    7.37241959874264    7.34773085614479
C        -2.03255147851961    7.58129880393276    8.65577330640811
C        -2.62368418344619    8.79949348540024    8.98496056709193
C        -3.25627563567100    8.94889552603525   10.20318370773277
C        -3.31003295150550    7.88871052900601   11.09610780661588
C        -2.72296564987631    6.67575776957258   10.77257286616095
C        -2.08438551751149    6.52050581285989    9.55775889881624
C         2.13775629329631    5.45668354939871    5.04677213353172
C         3.91966037658135    3.85066477741488    6.37013729010886
H        -1.82563404708109   11.02938967736743    5.05402069453286
H        -1.83114241019291   12.48105378515020    7.05190450315571
H         0.27708372840735   13.48644601426808    7.85213722233478
H         2.38159102420354   13.05548073213523    6.64346578652889
H         2.39580664479823   11.61477261139432    4.65650244220554
H        -1.50595612524819   10.09929594672920    0.84188092657257
H        -1.96469937301570   11.75890020836563   -0.90869435824078
H        -0.92509207929617   13.99481147666243   -0.79898145078273
H         0.57741193162226   14.56264361001027    1.07309569230312
H         1.03613104675580   12.90945878007129    2.83423632613368
H         1.90310133273195   10.33073663978085    0.84556258984135
H         4.19464772919241    9.52458657839675    0.42333227792411
H         5.48437102707278    8.45270187277557    2.22982281729554
H         4.48162604055223    8.17622753880582    4.46786396824044
H         2.18227867853724    8.98305365509869    4.89472786874734
H        -4.04775028886235    8.18825576949376    5.11725932192567
H        -5.33766886876774    8.18117269752788    7.22339232339124
H        -5.65224536475863    6.07301085322398    8.46831211083555
H        -4.74595650042504    3.96618468717230    7.56433533483173
H        -3.47547872810134    3.96137035024834    5.46947202850322
H        -1.20474363245470    4.61089760495829    5.59027950410966
H         0.25964069782271    2.65369874012718    5.34599807541588
H         0.63980582927831    1.65809933111761    3.11655497845255
H        -0.46348999404446    2.62567596018167    1.13386003973734
H        -1.95701301496447    4.57013233119829    1.37601234122706
H        -3.79068717420485    7.93475971661181    1.50703845805393
H        -5.56436199311669    7.54520205765147   -0.15375389454927
H        -6.76205327079274    5.38822599431044   -0.20279970986167
H        -6.18726174072095    3.62229378448580    1.42013136270484
H        -4.40567911666863    4.00229286462931    3.07761083389013
H        -2.57748711539952    9.61115572000000    8.27539117909845
H        -3.71428342544423    9.89246599796948   10.46145155468015
H        -3.81085449494301    8.00906777585443   12.04559421359152
H        -2.76570531613145    5.85197481792897   11.46974697736339
H        -1.62178195300532    5.58462524056963    9.28297618024855
H         3.74153597329455    2.80776787181375    6.61120314571878
H         4.71912650047065    4.25045271519653    6.98545647144795
H         4.14519465976397    3.97188624890449    5.31259627818575
H         0.37372688504668    6.28876446000055    5.77824395290571
H         0.40171648670890    5.97584274149155    3.12315623291280
H         1.43335227265740    7.23440899679881    3.31483523176595

