150
CSD_code = JOYSAT | q = 0 | S = 0 | Stoichiometry = C58H84Cl2N4ORu | MND = 5
Ru        8.94109928561227    0.77579309444720   22.55153796331566
Cl        7.61331764739355   -0.30072612548639   20.86374084876257
Cl        9.91231448506968    2.45881280586187   23.95881482865876
O        11.44270841923163   -1.90165680345321   25.30911560258700
N        10.51089255479880    2.23615099344880   20.40961442691652
N        11.34522647261478    0.27461669177259   20.61661066855260
N         6.28530720897438    1.78608256056328   23.45793274826304
N         6.85068305095897    0.23137568317276   24.81837416798303
C        10.39387083109660    1.08856204596641   21.11653754865983
C        11.51963118235481    2.13953810156580   19.48892569868855
H        11.78456204276948    2.93818703471384   18.82966568750647
C        12.04578513381725    0.90321531537953   19.61962979194826
H        12.84976996374684    0.42054377807590   19.10225079178819
C        11.72084285395362   -1.02286595083767   21.05605533024059
C        12.66489963441828   -1.12965884870833   22.07592953482476
C        13.12687579002893   -2.39285331317152   22.40970764388363
H        13.87797472830350   -2.48862337390301   23.17897614111056
C        12.66017847259909   -3.52865794639504   21.76564632503010
C        11.71649295317815   -3.38819888127328   20.75862603417511
H        11.35146391821748   -4.26817261262878   20.24922243261927
C        11.24399395949454   -2.14253996569896   20.37645210418754
C        13.18285785606401    0.09751475456841   22.76058617893432
H        13.78596239828191   -0.17193209949685   23.62265709326625
H        12.35608682901247    0.72360319130181   23.09518575526844
H        13.79657976831970    0.68766668206134   22.07793118080815
C        13.15899886347265   -4.88988889849731   22.14543325851752
H        13.31305803948676   -5.50488290496718   21.26106161693363
H        12.41975554457901   -5.38718805946038   22.77375239376561
H        14.09461879730701   -4.82492990958249   22.69627970355161
C        10.26471249178841   -1.99055594871792   19.25733562056432
H         9.37079849289993   -1.47468064968629   19.60772251647604
H         9.97478459305965   -2.96144512396583   18.86615599806644
H        10.69208624989277   -1.40045226751958   18.44610632979932
C         9.70872281731271    3.41838009761461   20.63654783671504
H         9.17050054594689    3.22773152526394   21.57978947230904
C         8.65714211352173    3.58668678019959   19.52674806412940
H         7.96425759006061    4.35909040636407   19.85736044689578
H         8.09230911348281    2.65216049211479   19.45641303497194
C         9.16989508012605    3.95330523160930   18.13300060008742
H         9.50733361112066    3.05052033098409   17.61965008965337
H        10.02195390461719    4.62795694780108   18.20641321225368
C         8.08603972395311    4.62982230367197   17.28496189535617
H         8.41108060093306    4.64663318117878   16.24216953720153
H         7.17539851530227    4.02817371639241   17.33610497820287
C         7.76648474263137    6.06298802248046   17.72273651064714
H         7.59059158852005    6.07634896871470   18.79770519269321
H         6.83784218881781    6.38254966111598   17.24445734583064
C         8.87467871981552    7.05923440819352   17.37571153102490
H         8.81087748348357    7.30220569598649   16.31227698977028
H         9.84855441292249    6.59582836070929   17.53221794533638
C         8.80776295502426    8.36384601397087   18.17677476511209
H         9.55312125189536    9.05428322765364   17.77402707616531
H         7.82439829226921    8.81678059846325   18.02643341645267
C         9.04510728610147    8.20947497983973   19.68273791857490
H         8.30881656525534    7.51742594105530   20.09045954753093
H         8.86327405099721    9.17458063900114   20.16169439058861
C        10.45548993985598    7.73638183030612   20.04296516744285
H        11.14183013006139    8.58344349984030   19.97462614882391
H        10.79279034147782    6.99685362055126   19.31799114981923
C        10.54792512045529    7.13128219721763   21.44756585036067
H        11.59955053748165    7.01818352512670   21.71992956782227
H        10.09665641856684    7.82620995039110   22.15944977978629
C         9.85508573067708    5.77280104090150   21.57829425411496
H         8.84877206315520    5.85412268727426   21.16915706519899
H         9.75838810352259    5.51800005197755   22.63490611474791
C        10.60655696822327    4.63885538109095   20.87890516292338
H        11.02924075064721    4.99173582483868   19.93872437603065
H        11.43624133350317    4.32421636242649   21.51596867982640
C         7.25508087825835    0.87805863583439   23.70798991680682
C         5.29358931663571    1.71005136841180   24.39935863584822
H         4.42896530117166    2.33859445034317   24.38907786678681
C         5.64902184938646    0.72950618880542   25.25592930653653
H         5.15993902627646    0.34259783568009   26.12659372943157
C         7.43875004111602   -0.89381714163772   25.45427675491398
C         8.27828410633084   -0.70319763891026   26.54890374055426
C         8.71088781749110   -1.82541599753381   27.24132203499282
H         9.34040506420051   -1.69666886127773   28.11051746778439
C         8.33257332397558   -3.10321346798322   26.85942519424651
C         7.50799027840177   -3.25928089874571   25.75312109673913
H         7.21290175154823   -4.25251625413475   25.44799459672063
C         7.04304743810036   -2.16655784591177   25.04155464059282
C         8.66609180341348    0.68049889280291   26.96443724022324
H         9.36383805837621    0.65746952362330   27.79716444774407
H         7.78743353448506    1.25137169929239   27.26649598123272
H         9.12980595017322    1.20938163408199   26.13096160943804
C         8.76815536740344   -4.30664732090092   27.64095764345664
H         9.53822051783061   -4.04928745006878   28.36455760970997
H         9.14857247443170   -5.07667387484875   26.97256505232266
H         7.91988716830086   -4.72663145699516   28.18173648756436
C         6.11449968608621   -2.32580414588151   23.87903259444040
H         6.04361264477970   -3.36921401277940   23.58692595193614
H         6.46999227367691   -1.74794815866676   23.02718005758019
H         5.11649400459824   -1.96687215680383   24.13579567242385
C         6.29426737002066    2.68233531708325   22.32195881973519
H         7.08547739352389    2.29582569075786   21.65039385410655
C         4.96464267958501    2.58650396256055   21.56073896220300
H         4.69070917924846    1.53065525235030   21.49205926574749
H         4.17840869415670    3.09193650564645   22.12066528426730
C         5.05193617423080    3.16723997378299   20.14822359714927
H         5.67263732651006    4.06196102204199   20.15711265744816
H         5.54099648086399    2.43669454096428   19.50119184320256
C         3.68670377857363    3.52694101455072   19.55603957219128
H         3.00888253592966    2.68126405372505   19.69201801092352
H         3.80033627116242    3.68780897781317   18.48145257845578
C         3.06025847774184    4.77930189470841   20.17752106857165
H         2.01389091808929    4.84378140064120   19.87073146353666
H         3.06724457694316    4.67563947733954   21.26165530972854
C         3.77575222754012    6.07129151073015   19.77655481039177
H         3.47442916001486    6.34111409850968   18.76144072324244
H         4.85194266631541    5.90274172563142   19.74621234606735
C         3.48045618384864    7.25748369200890   20.70060572189121
H         3.94229480275542    8.15102752789839   20.27278382190846
H         2.40043752158297    7.42361551338056   20.72244091838197
C         3.97307213874558    7.09285591281448   22.14232063289507
H         3.51984740942545    6.20023761589109   22.57316785090838
H         3.61186560002113    7.94051364196178   22.72959718002074
C         5.49596340452253    7.01369776674678   22.27243955525914
H         5.90299885854052    6.44346754630537   21.43831904264157
H         5.91260406672157    8.02092817733391   22.20216833566144
C         5.95459156314952    6.37304814822684   23.58653552861128
H         5.41897374164225    6.84673059753835   24.41239429413627
H         7.01978774056822    6.56842105296102   23.72904548062039
C         5.72334336270474    4.85854773904514   23.64502663360097
H         4.69667665201572    4.65293274502220   23.34331359789878
H         5.83752941157219    4.52343390960518   24.67786052926635
C         6.70683845294958    4.09981628762669   22.75326108093141
H         6.87760928157651    4.67809120120702   21.84639276517585
H         7.66457809780694    4.02342232901141   23.27684451731498
C         9.84479153537938   -0.57127271326456   23.56251001791320
H        10.46670612477854   -0.16688551381573   24.37185313889915
C         9.87807388975803   -1.99104131207940   23.54742633097545
C         9.12865548807259   -2.76475513520958   22.64988769426918
H         8.55263474914628   -2.24987917876914   21.89899791636003
C         9.10490644123615   -4.13923049732789   22.72055962993517
H         8.51271059275333   -4.70866910517165   22.02016336198838
C         9.83803758331402   -4.78795388970206   23.70010586912824
H         9.81164515867849   -5.86627376126369   23.77857987702574
C        10.62316507238438   -4.06354249836210   24.58166987760666
H        11.19731799014667   -4.59797158125196   25.32327148723695
C        10.67448587243282   -2.67881862371359   24.51280069128653
C        12.14737306653551   -2.43680245713506   26.41943988671119
H        11.51392624771756   -3.17526634938518   26.93076994060784
C        12.40709091585833   -1.25790654573441   27.35390106666616
H        11.46842712927722   -0.78477393151493   27.62434377134613
H        13.02243718627118   -0.51939725360928   26.84731483105580
H        12.91627906083137   -1.59379576311107   28.25312447077237
C        13.46912507321730   -3.08611173824686   26.00449398610250
H        13.31102661392259   -3.85075374943180   25.24893614354981
H        13.94409158456355   -3.53852319093545   26.87161251940226
H        14.13490764207386   -2.32891313200859   25.59772542696025

