73
CSD_code = JOZJEN | q = 0 | S = 0 | Stoichiometry = C22H47Si3Ta | MND = 8
Ta        5.17761270988152    4.43619698885615    2.85350761347635
Si        2.93849634200315    4.27170576179583    0.02108659623286
Si        6.24153016481683    1.15055087399647    1.67646160672589
C         5.03877951032892    4.82900398080893    6.16715845954618
C         4.49558861859305    3.72271400633673    5.55165371920581
C         3.37456328430919    5.62062126291820    4.80842285118028
C         4.54178898727282    4.62911305105807    0.92230254672116
C         6.69536320553104    2.69479840618353    2.67897652720058
C         6.14345572824519    4.87342894984169    7.17257387158272
C         4.78806581042223    2.27984433095707    5.83561479446129
C         2.29238715527240    6.45808661010326    4.19729688100693
C         3.19560084802333    4.44651964293807   -1.86930445518468
C         1.51879817204451    5.48395875266531    0.48619500073379
C         6.09019963691447    1.63278467198548   -0.16247912552293
C         4.59222506502991    0.42324006709031    2.31982915508134
C         7.58972278327464   -0.19812593357230    1.87167062200384
H         2.28420274952550    4.23285390232228   -2.41911332725595
H         3.50774323889193    5.45262413015501   -2.13049226905071
H         1.11440760287796    5.27172433220714    1.47090560898602
H         1.85148780871183    6.51725419775598    0.47841769005958
H         0.69960130662515    5.40137851370665   -0.22188204800994
H         7.06599973825115    1.80122560136871   -0.60641227665560
H         5.59704511782952    0.85994801779713   -0.74304396918207
H         5.51606487295264    2.54983581611767   -0.26001020509905
H         3.84783164144582    1.20572911360240    2.43795054513793
H         4.19129757718718   -0.30715395599556    1.62437161557824
H         4.71696415458350   -0.08080843004505    3.27407024073193
H         7.70607951469429   -0.50201007319997    2.90749343008557
H         7.33909762888788   -1.08438469391252    1.29744662810233
H         8.55523433837209    0.15499430045486    1.52380995528675
H         5.77188283970709    5.24486994821288    8.12884902644621
H         6.57141991272607    3.88689750266915    7.33527755247409
H         4.68054878245815    1.66680579021237    4.94110717525279
H         5.79786110754428    2.14737648277187    6.22232149232986
H         4.09349037137328    1.89918411873368    6.58875894136634
H         2.41538192500382    7.50606390200731    4.45989391481033
H         2.28653639760142    6.37357553651563    3.11064151152611
H         1.31732726201067    6.13485589835925    4.56868041347358
H         6.92198666296501    2.42126648746308    3.71343170505500
H         7.61006267313352    3.11674562566151    2.25446526089858
H         5.25250381593169    5.06864473041875    0.22410508691789
C         4.34223109483132    6.00347675417318    5.71091136874350
C         3.48949075980621    4.18316450585115    4.60483649222876
C         6.75295384309938    6.09340237636835    3.18080350566545
C         2.25641549462377    2.50857326517494    0.33604708539966
H         6.93989972823801    5.54562769581928    6.84722171305140
H         3.96058100218247    3.76468798815651   -2.22630388509519
C         4.65780861016179    7.37847580374688    6.20244275766327
C         2.28992995319650    3.34653937284779    4.23348770216741
Si        6.57944025254443    7.66774733411015    2.13554369242186
H         6.67878047195884    6.33294499825623    4.24058951555184
H         7.74078654061913    5.65391347881720    3.01551320225875
H         2.04058524575042    2.34320938398378    1.38614848034529
H         2.96154577220670    1.74879983363725    0.01930841358858
H         1.33277221185426    2.35296245241664   -0.21357399652102
H         4.04918884481578    8.12793925901959    5.70256530517341
H         5.70765722004547    7.62325632485695    6.02986108737010
H         4.47671653475515    7.44905459684108    7.27619499858094
H         2.57278111312776    2.31408883678828    4.02440643836846
H         1.78357340210814    3.75555537870090    3.35781760910824
H         1.57368896585238    3.32998021735050    5.05920777144592
C         7.43629392738041    7.38613209138749    0.44838488881218
C         4.73006744439884    8.07439412370741    1.88436775495302
C         7.41329233119720    9.15455039092362    3.01195723059904
H         8.51731379905475    7.40002074350792    0.54709254932386
H         7.16445528117550    8.15613490937440   -0.26602487219166
H         7.15621930822374    6.42603642626092    0.02557507292166
H         4.22046918981566    7.25190378685309    1.38705446466787
H         4.59960687994052    8.96705948138530    1.28057669917967
H         4.23669724916271    8.24933747171643    2.83483047541016
H         6.92514433964670    9.38404106969977    3.95406724813766
H         7.36524424400947   10.04545437123268    2.39420733789716
H         8.46003188096483    8.95909705772068    3.22317152905935

