35
CSD_code = JOZMIU | q = 0 | S = 0 | Stoichiometry = C18H11ClN2O2Pd | MND = 4
Pd       -1.72304002885017    6.10988935666318   13.41698957193180
Cl       -2.12919843003987    8.23160292815541   12.90900911725596
O        -1.52920972615259    5.67926001086901   11.49950622749287
O        -1.58708269659385    0.87867933789677    8.87074614205712
N        -1.82790428614984    6.40314141227230   15.35377458148834
N        -1.31303526897815    4.22131753340766   13.92450705319226
C        -2.12656573569775    7.49536946512563   16.03978392475882
C        -2.08727049554416    7.53264387757237   17.43534288336457
C        -1.72266620470622    6.41103624956300   18.14488511868486
C        -1.39765679584248    5.23744936433927   17.44463975153007
C        -0.98818267790338    4.02621999058111   18.06794704482804
C        -0.66443263033244    2.93207782631214   17.32885450877819
C        -0.74328655736126    2.95000034061002   15.91259145733208
C        -0.38735767215648    1.87218103500317   15.07339293931952
C        -0.53020601009602    1.99180777981112   13.72202614168553
C        -1.05576882403990    3.17243827343653   13.12206828141160
C        -1.16805073578030    4.12255010226742   15.26445712855389
C        -1.47331632932130    5.28295019073065   16.03576357176051
C        -1.29743291502206    3.25416806776588   11.70130526289977
C        -1.34674486118625    2.05616237232703   10.94978190072077
C        -1.52234639756067    2.03759162256642    9.59057716825891
C        -1.64994849435895    3.25000773956993    8.89392584357077
C        -1.63984877331588    4.42322373995663    9.58435128366167
C        -1.49693451604440    4.49133527708737   10.99982498532211
H        -1.49779204775457    0.12110625870089    9.46037180451084
H        -2.39669514330031    8.36743333991205   15.45415230225561
H        -2.34070530964647    8.44987800465968   17.94234825568633
H        -1.67883111302608    6.41988691115605   19.22368758171076
H        -0.93025864544630    4.00158373997625   19.14551466578946
H        -0.33941859186132    2.02091712024944   17.80889945608057
H         0.00807522504246    0.96657581622876   15.50913348508331
H        -0.21020808240276    1.17921084601752   13.09238551881611
H        -1.28812758195907    1.10645809769948   11.46274132938009
H        -1.77236904267473    3.22353492549262    7.82306281831224
H        -1.75918260393693    5.36831104601501    9.07745089251518

