12
CSD_code = JOZNER | q = 0 | S = 0 | Stoichiometry = C3H4AuClS3 | MND = 2
Au        3.85028466848851   -0.01289336521988    9.58260415626138
Cl        3.92097968413185    0.29963266215524   11.80163463822149
S         3.94332483732610   -0.24902151119857    7.25753106617078
S         5.98591844812509    0.75170530528290    5.37328290884005
S         6.24337777124161    1.34309220246614    8.24037254103812
C         5.34700839225829    0.59100414333594    6.97064924598711
C         7.61688523014469    1.40419915956325    5.89947096773547
H         8.02433851516601    1.98041602730584    5.07083825438122
H         8.25828884383076    0.54557230628548    6.10175751946049
C         7.40096500449436    2.24875217766543    7.12990807297609
H         8.32306672654144    2.41022202298318    7.68399869077308
H         6.93826187825119    3.20731886937496    6.89415193815446

