72
CSD_code = JOZQEW | q = 0 | S = 0 | Stoichiometry = C29H36ClIrOP2S2 | MND = 5
C        -2.18918174133732    8.99927913324072   10.53970310100704
C        -1.89173382579060    8.95858148592618   11.98692032114852
C        -0.64924695424170    8.64564559526785   12.48652764127537
C        -0.52588081305252    8.93552691897101   13.88277792448390
C         0.58711431938951    8.87504610303464   14.72480468736923
H         1.54660265460434    8.58503955697928   14.32874355734037
C         0.46132879338362    9.21742893008770   16.05254426761735
H         1.32547274335968    9.17141454368084   16.69857516614283
C        -0.76256314620106    9.63113208744510   16.57611583492492
H        -0.83803415267544    9.88938090988759   17.62129173230487
C        -1.87135772611208    9.73416851096629   15.76243661178138
H        -2.81931378699357   10.07821747304819   16.14543632026655
C        -1.74182562062052    9.39950063924383   14.42339618002748
C        -3.57943864175722    8.94146819328471   10.04325334526271
C        -3.89471677405643    8.63312861886709    8.74035487595427
C        -5.26412637111601    8.90355797077112    8.42443263991836
C        -5.93895488507832    8.84620933960072    7.20267291829499
H        -5.40579788664513    8.57649500448782    6.30564884117151
C        -7.27661186847473    9.16727915029587    7.14304228871259
H        -7.79295347042787    9.12414226912031    6.19554150694855
C        -7.97479231791699    9.55609393322668    8.28521081064782
H        -9.02429316817224    9.79771446563861    8.21491491869816
C        -7.32778741736426    9.65659375521085    9.49910269457256
H        -7.84663627804399    9.98246040428342   10.38696222911572
C        -5.97846167794545    9.34401581266277    9.55664351152524
C         0.70342357114685    6.08638822016395   12.01861252756664
H         1.18202524066969    5.54921965751734   11.18896757827960
C        -0.67342458610149    5.46960061207912   12.25213318563840
H        -1.28320113080734    5.56466150170968   11.35267035082720
H        -1.18646794076170    5.96932701149366   13.07310838068392
H        -0.58203926487962    4.41249508721056   12.49268200552317
C         1.57370729442317    5.95593442225819   13.26110734584533
H         2.54556285200105    6.42529984863875   13.12690287696509
H         1.74197362910436    4.89930986695310   13.46631241794284
H         1.08104050725716    6.38971756247625   14.12773265336807
C         2.06431315725970    8.66701148667077   11.36959420093007
H         2.52462412646743    8.55023820605300   12.35611892019337
C         2.96319920861371    8.04750055102043   10.30343845326386
H         3.17048686451816    7.00164470543750   10.52375179914541
H         3.90985670081375    8.58190085131110   10.24152431237359
H         2.47284777060355    8.09686063708576    9.33148774248832
C         1.80597276554626   10.14527264395417   11.09588248390437
H         1.24762220349364   10.59734536434165   11.91436633144855
H         1.21968781246597   10.26041050905020   10.18464439419975
H         2.74541088647044   10.68294905270159   10.97839884852583
C        -3.21629193407643    6.09339585977698    7.43865787940058
H        -2.31908978431389    5.56627689512495    7.08763620010442
C        -4.30987334332235    5.96171206479824    6.38754683427126
H        -4.03420176762919    6.44355315080540    5.45228803076306
H        -5.24645598546361    6.38110221947906    6.74636529706716
H        -4.47501685030561    4.90517052986647    6.17928562162638
C        -3.65184029439935    5.46110616716970    8.75821256600976
H        -2.85588940914716    5.55433090503927    9.49825591498191
H        -3.86842331518169    4.40373525797598    8.62119806202117
H        -4.54461615858376    5.95096726111613    9.14551902850969
C        -2.39924439193944    8.69641377827564    6.21749060876883
H        -3.30521584421561    8.57140010496159    5.61542048411486
C        -1.20244415028789    8.10330191737490    5.47973441201073
H        -1.37097907275372    7.05550665989867    5.23642614686925
H        -0.31348468928338    8.16537643467433    6.10709484555529
H        -1.01297780078615    8.64681376772908    4.55544715832459
C        -2.19023622274532   10.17511268938062    6.52809801186881
H        -3.08955286450103   10.60871388066262    6.96314682738942
H        -1.94352107231544   10.72554694255794    5.62167337154624
H        -1.37799174597853   10.29630958203676    7.24414192264015
Cl        0.08184916265715    5.94547175248388    8.57853507348734
Ir       -0.89578095539444    7.77909616111930    9.42255489433833
O        -1.35349352308428    9.67493752188293    9.80919887504855
P         0.43144925356063    7.78960672171186   11.30818954571695
P        -2.56628579214113    7.79747267555489    7.83128763200647
S        -2.98927426566126    9.52466682716018   13.21377347900366
S        -4.95844883773014    9.47329366802812   10.96313054092582

