57
CSD_code = JOZQUK | q = 0 | S = 0 | Stoichiometry = C22H32P2Pd | MND = 4
Pd        3.24337758128150   13.47766449784067    4.86998301522462
P         1.69061341420164   14.42348717352249    6.37703402432687
P         1.85583301326829   14.38486145713850    3.19083784958963
C         4.72579068134710   12.86036014250981    3.65172008741823
C         4.85010280371380   13.15735373435957    2.30246125518677
C         5.89909602108415   12.65300239963437    1.54248216423749
C         6.84559438046796   11.83198578338296    2.12497154132306
C         6.74413616832202   11.51483515204021    3.46801248342628
C         5.69731532345287   12.01925371272305    4.23022096351593
C         5.48183333866287   11.76547761319444    5.65257719564091
C         6.29165557857873   10.98260819451657    6.46662923501754
C         5.99501351772923   10.83312187628112    7.80995721252623
C         4.89147604988207   11.47203999318785    8.34226905977867
C         4.07903921684520   12.25376801357813    7.52953113074970
C         4.34602817340667   12.41326352402146    6.17803847895025
C         0.75185048014421   15.65758574382652    5.34889355991869
C         0.31747942398595   14.98166877037791    4.05436632194471
C         0.27287269246722   13.91088437060588    7.46678621765822
C         0.55505981754914   12.71046440694558    8.35853367876791
C         2.64674397881049   15.58200634291182    7.45494209729293
C         3.88840477588015   16.05121645438898    6.69866162003522
C         1.96885867636915   15.66358572839978    1.84438294189775
C         0.91107015479634   15.58262771577343    0.75165397891477
C         1.21024636348335   12.88129417513434    2.32828995459411
C         1.20360259771209   11.71083940839468    3.31084486056198
H         4.12434669797764   13.79702066301155    1.80701187325426
H         5.97131002956686   12.90432394700419    0.49218957494758
H         7.66147780016840   11.43851859101823    1.53424529771187
H         7.48499202273180   10.87058180776429    3.92052926631221
H         7.15932966234836   10.48640630517240    6.05469667017490
H         6.62646441785847   10.22197447449313    8.44024234690777
H         4.65703143196947   11.36553098260717    9.39352676488996
H         3.22323884205262   12.74594724948939    7.97953117707559
H        -0.10122729067992   16.05316288377258    5.90907748405431
H         1.42639824972279   16.48729324658684    5.11393678005470
H        -0.24560669298519   15.66971988939351    3.41818406694702
H        -0.31961625832999   14.12088015263017    4.27884068177742
H        -0.02555844953398   14.77655997508475    8.06628204673241
H        -0.55231819449013   13.66623513680471    6.78936800089148
H        -0.36133669277216   12.37841960428640    8.84451658555346
H         1.27444150230138   12.95935324917598    9.13553942156973
H         0.95200310875778   11.88455848450752    7.76948114546406
H         2.01210550310391   16.42644223232790    7.74539487717806
H         2.94757968873054   15.04793843911742    8.35971605300415
H         4.55049933967292   16.61877059928265    7.35002031988775
H         3.61482708555797   16.68717403706117    5.85484597226230
H         4.44328322501552   15.17812867973110    6.31077898088561
H         1.91456431963324   16.63154137410038    2.35507126414873
H         2.96417548844770   15.59825375156329    1.39860630962909
H         1.00456036547126   16.43979557889230    0.08685449414413
H        -0.09480009740809   15.58684902210017    1.16644961586660
H         1.03419529818176   14.68075827161217    0.15775489218428
H         0.20606114691797   13.07067279955938    1.93621668427158
H         1.88059835130956   12.65336062835636    1.49481401127509
H         0.87329129436535   10.79593139363167    2.82148156009595
H         0.53202928528236   11.91007454489962    4.15001411432247
H         2.22236529560151   11.54696562027121    3.70720073803266

