72
CSD_code = JOZQOE | q = 0 | S = 0 | Stoichiometry = C27H42P2Pt | MND = 4
Pt        0.30792486091057    3.18211925809854    5.59262529702790
P        -0.12921338528179    1.84149721231081    3.68525085226876
P        -0.88388350299156    1.69042170675412    6.99645799278077
C         1.12710883120366    4.71831158733557    4.52776398172193
C         1.69212793645916    4.71451052453362    3.25958266641482
C         1.97685632688035    5.89352541636833    2.58221902081933
C         1.68620105077896    7.11411529373886    3.16070624068689
C         1.18944720390105    7.15505186570433    4.45140610907170
C         0.93540929640115    5.97692792222397    5.14207860764941
C         0.64080353060758    5.89138659599424    6.57243005434717
C         0.57868468926392    6.97620608449954    7.43777786247735
C         0.52405821474725    6.77569757890620    8.80564449583899
C         0.57873417877985    5.48965014953976    9.30752969152994
C         0.60718756249703    4.40320678178919    8.44218349740891
C         0.59902527717167    4.56677258552106    7.06344324081072
C         1.41659227994966    1.06167981595781    2.95738189940363
C         2.47928230664461    1.05841333184720    4.05911879370711
C         1.29351296866510   -0.32811851509920    2.34215056210436
C        -0.87601272387539    2.82175302869086    2.28573814479518
C        -1.97908908488959    3.68577179364484    2.89419493301825
C        -1.36874301553634    2.02814980790541    1.08147827105813
C         0.12450423833135    0.78012948946742    8.29370693120545
C        -0.30754817271502   -0.63269545950058    8.67064620303390
C         1.57644992621779    0.77781847620464    7.81007699012876
C        -2.17132458930425    2.63036131494962    7.96155511385481
C        -2.85830588101686    3.57303893062974    6.97455573405463
C        -3.17518892070475    1.80024673818738    8.75247159825907
C        -1.33896278946347    0.43842228608710    3.78193586915560
C        -1.23784325903274   -0.35404456497279    5.08312038385007
C        -1.93451838324186    0.36527701505552    6.23670153907797
H         1.95773412945736    3.78004825230599    2.78132255177459
H         2.42085365667861    5.85238128715836    1.59599008930273
H         1.87657594590695    8.03210551150338    2.62175905822433
H         1.01075097972106    8.11190753812561    4.92139985966047
H         0.58449482080288    7.98470197033497    7.04899800418638
H         0.47074729940617    7.62122016407169    9.47766527792366
H         0.59190616394524    5.32446125088175   10.37711635400457
H         0.66864816020228    3.41330143256782    8.87630686472894
H         1.73265213573425    1.75457999807773    2.16788347690404
H         3.47806405297578    0.94890775580875    3.64010705385799
H         2.30855567207190    0.23035382047667    4.74462218691142
H         2.44216655869721    1.99422785588751    4.63101046711358
H         2.26544787992527   -0.62788717684705    1.95095881906272
H         0.58432877615786   -0.35051385802638    1.51756683690865
H         0.99335764871726   -1.06482239228450    3.08459868852674
H        -0.07873279531647    3.49587254374368    1.95513194867243
H        -2.32192400441538    4.43331897748415    2.18144830959796
H        -1.59000728181111    4.20545870708151    3.77540892902923
H        -2.83638351057012    3.08418822862606    3.19328582864281
H        -1.70677385200885    2.71859126735248    0.30965116349445
H        -2.20530708054749    1.38261176481351    1.33903939619396
H        -0.57222148978059    1.41974810032705    0.65873757476230
H         0.05400990295357    1.40650535834646    9.19147181761284
H         0.36078971520545   -1.01147086115568    9.44360624407813
H        -0.24537336911275   -1.30706336528361    7.81895018329367
H        -1.32008401329618   -0.65911461584906    9.06738598858151
H         2.26270229441924    0.57127868001517    8.62970122478814
H         1.83611978685443    1.74835239069979    7.37343568181299
H         1.71892014019791    0.01118007536586    7.05039289503629
H        -1.59977753760692    3.24929298397737    8.66221158579882
H        -3.45432291507181    4.31607725906310    7.50078768372645
H        -3.51501351230659    3.02939698048436    6.29680702577121
H        -2.09968376270517    4.09893964990087    6.38340647837511
H        -3.82468946791511    2.46567673847388    9.31988765215206
H        -2.67274834261602    1.14279128491132    9.45857918446170
H        -3.80392603348368    1.19978245806753    8.09881691785725
H        -2.34123439544973    0.86801346300207    3.70292934463037
H        -1.19016793958501   -0.21913642346296    2.92440445660659
H        -0.18576893077537   -0.52142206318306    5.33316930702125
H        -1.70252022491470   -1.33523369458317    4.93945514320220
H        -2.22587754843674   -0.34705781614980    7.00959232240329
H        -2.84396468358422    0.84424446549224    5.86446754571818

