44
CSD_code = JOZROH | q = 0 | S = 0 | Stoichiometry = C18H23ClNRh | MND = 8
Rh        0.61104536020607    4.66750982084924    0.78384814068994
Cl        1.68482726242644    5.08389231711751    2.77834284876722
N         1.17544675957818    2.74359443518890    0.96833018090531
C         0.17412673898202    4.96227720892583   -1.33952210474593
C         1.57972922756412    5.30105747447860   -1.19794624351353
C         1.67398789006219    6.37579563036099   -0.30672620873920
C         0.32946948210714    6.72243776890538    0.13145226226917
C        -0.59075525997096    5.92206556972828   -0.60583373289898
C        -0.38443503531359    4.02841600467317   -2.36889947051282
H        -1.37687306389315    3.68597910570322   -2.08465370352251
H         0.25440554132383    3.15843611847936   -2.50585068254597
H        -0.46220632825803    4.54569206991468   -3.32775666186090
C         2.69111588650210    4.68919174745245   -1.99617353401978
H         3.63867537867043    4.75090505842068   -1.46514312342395
H         2.79539638807432    5.21876594993216   -2.94563418862931
H         2.48724529275033    3.64316965158888   -2.21741607186168
C         2.89580011144596    7.13911643782808    0.09319194245621
H         3.78692412893849    6.72682181918162   -0.37306694893258
H         3.02561997630430    7.11084644735292    1.17497629459727
H         2.79215818841469    8.18209004971608   -0.20917042073390
C         0.02409934499132    7.95251908639894    0.93156664985317
H         0.66999567842842    8.00630365996855    1.80572310789175
H        -1.00977508875151    7.96175636202999    1.26810556869879
H         0.19673369308691    8.84170179864178    0.32140129722698
C        -2.07280269737157    6.10759494803822   -0.72006656897420
H        -2.30509217787677    6.51668070241837   -1.70525705745777
H        -2.44139585655425    6.80119726863635    0.03046384071193
H        -2.60592372871736    5.16500409348851   -0.60951478477061
C        -0.84174615390397    3.93015763776843    1.93900037400071
C        -1.91428025002124    4.63295182125496    2.47476795239790
H        -2.03511514038388    5.68797870621844    2.26883333930230
C        -2.83232774578828    3.99700106500335    3.29252620145419
H        -3.66874581508399    4.55378841058592    3.69140060663674
C        -2.68528898131320    2.65381739338069    3.61920433525328
H        -3.40576713311963    2.17518704065962    4.26629322180452
C        -1.60943223894677    1.94267752251533    3.13585933442405
H        -1.47281835679608    0.90679265281219    3.41046215131392
C        -0.68751537075131    2.57378009052514    2.29707008320814
C         0.50637706963899    1.97196044063884    1.75828805319527
C         0.94257349473735    0.58702772445191    2.10524369162279
H         1.86633217429145    0.32683565379593    1.59188338115045
H         0.16955781329792   -0.12952771681761    1.83192075230277
H         1.10536974217899    0.51465168083134    3.17942009584589
H         2.05858379882586    2.36880127095738    0.61915579913337

