81
CSD_code = JOZSUO | q = 0 | S = 0 | Stoichiometry = C33H40MoO5P2 | MND = 7
Mo        7.20384779795981    1.00693296438411    3.13462959298672
P         5.80558182699389    3.03577746279571    3.12361174062246
P         8.67032723506100   -0.92883236957601    3.36787260079756
O         2.97456362114553   -0.18216746625744    5.22303154231018
H         3.09544187618161   -0.86434777982277    5.89909654580821
O         4.53758110279568   -2.33025729473297    5.45453771014106
H         5.22068029153807   -3.01092212520157    5.48976607481032
O         6.30094284565391    0.59260129619546    6.06237970226645
O         9.67620664876561    2.63388466680524    3.94915016238718
O         7.99624060074414    1.39680736088231    0.17244550077681
C         3.97522874878613    2.94707060196017    2.93592905969017
C         3.21603223810818    4.10767635470501    2.79061161764401
H         3.70163244436655    5.06516059150111    2.67587457675287
C         1.83480866620443    4.06425878309274    2.79641078063164
H         1.26939851794448    4.97605011879158    2.66841422110234
C         1.17808856333259    2.85845054491927    2.98481829168662
H         0.09890831229839    2.82550823073471    3.00637098349353
C         1.91096913849538    1.69983020184100    3.14445239557490
H         1.41386233786802    0.75359771774691    3.29249332740110
C         3.30182311417827    1.73184815465193    3.10841234971949
C         4.08193522019068    0.49491921736751    3.21895166246346
C         5.07202359427381    0.25772389771061    2.23485231750528
H         4.96087389540909    0.78139812107047    1.28825323966372
C         5.88714658892482   -0.86816653485061    2.32609766536747
H         6.41268253169996   -1.24182495689401    1.45074204796776
C         5.72030111901030   -1.76976249383283    3.40727849184677
C         4.74602665109966   -1.53396103969275    4.35222452757971
C         3.91039353764500   -0.39458434761533    4.25977859686668
C         6.65463026468295   -2.89952111876190    3.49662148011611
C         8.03180226820193   -2.65824452750076    3.38914728346403
C         8.89602900130964   -3.74957372557588    3.43155202734186
H         9.96075516455308   -3.60074948812071    3.34177397814817
C         8.42068189062102   -5.04052061190774    3.57569988949065
H         9.11389755078497   -5.86859916053201    3.59710810729861
C         7.06022908810585   -5.27022718242769    3.69220950602110
H         6.68388251049886   -6.27607216667212    3.80426532564305
C         6.18361993995965   -4.20298090323070    3.65003385449720
H         5.11733113901272   -4.38054898556654    3.69610704150658
C         9.55738685436935   -0.90979291000667    5.02863472879163
H         9.56634120809750    0.16030189758769    5.27915742324303
C        10.99197923974932   -1.42777432845729    5.10460844612819
H        11.35849116853763   -1.27703333245875    6.11977519246055
H        11.65783236602759   -0.89515141897567    4.43168467481510
H        11.04613232720390   -2.49350409952716    4.89419617948026
C         8.70619641643261   -1.64004297945707    6.06940107636811
H         8.81310795980757   -2.71919018932220    5.96588229011755
H         7.65314193597321   -1.39004973537947    5.96577820579168
H         9.02229981161704   -1.36079978090602    7.07319801922642
C        10.05405451523700   -1.12630104657135    2.13896545923940
H        10.75678669636407   -1.86678489789156    2.53744882908270
C        10.79637415039018    0.19250880358385    1.95993469459978
H        11.68392118078910    0.04273429594699    1.34590865325129
H        11.10367178116612    0.60832890377467    2.91797564063527
H        10.16402843857747    0.92708765466088    1.46807480548432
C         9.51221745870844   -1.63916543261811    0.80763808458139
H         8.78742538989460   -0.94404423843616    0.39128507055608
H         9.03285255950196   -2.61070892386043    0.92470680121953
H        10.32552720592194   -1.74277613016928    0.09054705816658
C         5.79442802792495    4.08881567271205    4.67696122427614
H         5.52133912831713    5.10680205319519    4.36352201975593
C         7.16359367668184    4.13670450630455    5.34342925704525
H         7.13927778518114    4.82604829956756    6.18719074102518
H         7.93709009607724    4.46925105930456    4.65649842285325
H         7.43726565716130    3.15126694549836    5.71676206680138
C         4.75557586362290    3.59090153844494    5.68360670188143
H         4.86421393274030    2.52451545596670    5.86174000882766
H         3.73932583421347    3.77365554418535    5.34329766266615
H         4.89226339621831    4.10665358433041    6.63323440346955
C         6.18676900241353    4.32217609919914    1.82416054480288
H         5.67606737966995    5.25043594498418    2.11224555000710
C         5.64952477179428    3.87020653926759    0.46807523462286
H         5.83273181206051    4.64008764610078   -0.28056439421820
H         4.57725575101251    3.68321823596506    0.51064213312387
H         6.14614585537135    2.96163194257346    0.13923528599830
C         7.67957371653069    4.61453862540883    1.74309515440880
H         8.24570885576339    3.69569523140103    1.60102079094622
H         8.03687751850806    5.09905639188315    2.64855367362724
H         7.88334149942811    5.27737561660915    0.90283810630245
C         6.62888721270010    0.73589105188173    4.97274586111784
C         8.72529375424174    2.04833381758615    3.67086140224575
C         7.71047292360724    1.25806407774332    1.27624099577395

