88
CSD_code = JOZTAV | q = 0 | S = 0 | Stoichiometry = C35H44MoO5P2Si | MND = 7
Mo        2.14871158746999    3.17396787778480    7.25149568864235
P         0.66318839111154    1.68838659480204    5.96214627556914
P         3.66533965286373    4.77582816306372    8.31132081493909
Si        6.55624139043789   -0.00071908337194    5.64373064544433
O         6.49863740823402    1.07138766593222    6.92011707815364
O         0.91661780377188    5.65310434561897    5.92230540708465
O         4.97011904507174   -0.49034138815241    5.79537386174822
O         0.07655350350711    3.46160111633248    9.52726642041182
C         4.80267859369840    1.94116088064988    8.43047049827797
C         0.65116262363185    1.88190014245816    4.09416070443565
H        -0.32117394887863    1.50569259282305    3.74483992376586
C         5.98430121948098    5.17712084018533    9.88248264808468
H         5.64818866216581    6.19381905991159   10.01690033906725
O         4.23365168278815    2.76207573067963    5.00498711432187
C         4.44810452634771    5.89732239963759    7.01883902666203
H         3.70643766555783    5.88447737451661    6.20767972527162
C         2.56702538714001    0.98090491151421    8.17837835187357
H         1.63888939938628    0.68043423169148    8.66018698493528
C         3.47353298612442    2.91019258715317    5.85218308660657
C         7.21340491469121    4.81340176614207   10.40078191665866
H         7.80952377095724    5.54339732817380   10.92935400373403
C         0.84452907585160    3.36342150367464    8.67830444434372
C        -1.16466858639999    1.77000060380560    6.33985883885806
H        -1.69871276164158    1.25922161942366    5.52797689447549
C         5.24136389148615    1.10871041583290    7.43522871987061
C         2.07375493405691   -0.70720586843738    6.43059150499355
C         3.03894970888328    0.14373399905565    7.12975027662504
C         1.37874908224705    4.70375012001479    6.38155943074720
C        -1.66414087311580    3.20778043966607    6.39865174085205
H        -1.05792253229165    3.79884713089366    7.08290082645777
H        -2.69608054509045    3.22876142350570    6.74723436141445
H        -1.62996389131540    3.67787465418362    5.41874464797808
C         0.78704531528400    3.33998660376687    3.67421652179065
H         0.02764958221908    3.96568971217532    4.13523760621648
H         0.68592719387222    3.42408242433456    2.59230450677560
H         1.76580677640423    3.72459897899577    3.95655943643315
C        -1.45548206120976    1.04088986703493    7.64970117557574
H        -1.12301037660096    0.00440384584134    7.60636160218144
H        -2.52603290190617    1.04822965322497    7.85103998060372
H        -0.95657355020299    1.52952980903084    8.48198970261079
C         6.88665846914677    0.86571415636416    3.99435965342684
H         6.20060200666181    1.68971506222532    3.82006683354471
H         6.78591904211945    0.16629127203649    3.17113665875771
H         7.89701962469325    1.25993839439004    3.96764860382396
C         2.70526453881977    5.25316409933010   10.88011472239584
H         1.99995441641584    4.43496509442964   10.75726228233341
H         2.28572252475162    5.95023600925715   11.60443989257305
H         3.63314635311497    4.85219756086145   11.28671928702285
C         4.36300303601540    0.21253563272275    6.78833175799926
C         6.90773243669146    2.59259272661098    9.56860740606843
H         7.25702170737088    1.57995513651139    9.43474426319614
C        -0.03858763512486   -0.97645972264609    5.32926574431334
H        -0.96022481675545   -0.57267814709350    4.93774396136159
C         5.18463812224354    4.25605790385796    9.20877405953054
C         2.94839672670465    5.96411572703405    9.55168864146669
H         3.68069273142329    6.76325843352815    9.71280082585151
C         0.20403188150174   -2.32931198516895    5.18411219118465
H        -0.53286677166445   -2.95748966353686    4.70479255111501
C         3.43566088544293    1.86412995090816    8.81937025541274
H         3.18873682222069    2.25376753595868    9.80439856881877
C         2.32857106849450   -2.06336909464289    6.24821280009114
H         3.26349322325175   -2.47063597042880    6.60259102649400
C         7.74313691067449   -1.42867997378668    6.01527859623312
H         8.76623119939039   -1.07057377306016    6.03750642852684
H         7.67884668452887   -2.18150826961305    5.23775416439367
H         7.53627639349605   -1.91109823270330    6.96649607469890
C         7.68641377623434    3.52242526546362   10.22814811160260
H         8.65555670856224    3.24312690529994   10.61433402238402
C         4.72613659120984    7.35303479469484    7.38731901911155
H         3.82505037827890    7.88081769284316    7.68704394021735
H         5.13027466217114    7.85930905516298    6.51098156463345
H         5.46773384461907    7.42951455686803    8.17914401385054
C         1.39732149304313   -2.87443376610156    5.63178269169769
H         1.59647467796950   -3.92760758991143    5.49965275742953
C         1.76051894547851    1.05799367131142    3.43689259186319
H         2.72000433670400    1.24588812890786    3.91140553521254
H         1.84414976947198    1.33286413078470    2.38607462434500
H         1.56072988843265   -0.00940750056509    3.49158765394896
C         5.65479723964271    2.94279555907430    9.07435484291435
C         5.73941269553613    5.25508268620339    6.50646354633146
H         6.56060621831787    5.44286718394258    7.19641925524940
H         6.00562087346763    5.67241626892095    5.53648582031652
H         5.63791644466913    4.17768064819205    6.39807119828212
C         0.88365167279909   -0.14137699208448    5.95906106993297
C         1.66516833575938    6.58963565556408    9.01879554411177
H         1.81582716653225    7.02440924704467    8.03230004328080
H         1.32142253448362    7.37273297556125    9.69397426075360
H         0.87841041889941    5.84407948590398    8.93587790740646

