42
CSD_code = JUBXUB | q = 0 | S = 0 | Stoichiometry = C19H17ClMoN2O2 | MND = 8
Mo        6.90295970137902    7.42949406410178    3.35750791017889
Cl        8.06556074972535    7.81700123353073    1.21967083708611
C         5.73125445670743    6.53512384243519    5.02280703903174
H         5.33425102056099    5.52646521011532    4.90628468268183
C         4.48851200892430    6.96267932498836    1.38247624822811
N         5.47078020579167    6.44023060290687    2.10717226976802
O         9.05136981237001    9.01294150291383    4.90120964425411
C         8.90850784315065    4.99620151208804    3.42830672276763
N         7.69539628124154    5.45041635911874    3.13684630110739
C         6.99343196601080    6.79289710741478    5.60137488539816
H         7.59242749826356    5.93564045338581    5.89841793269833
H         7.06001888201791    7.62008650728405    6.30300550965765
C         6.96756430670454    3.16305707360898    2.73260540709212
C         4.59725130701372    4.21757080833880    1.63589302159724
C         9.99791846064631    5.97593928287381    3.69799129940202
H         9.95441591332008    6.77943869120396    2.96232444379717
H        10.96833791856333    5.48916362885759    3.64183139573396
H         9.89023916830109    6.41672242055071    4.68809645134446
C         4.78761233012781    2.81199999278834    1.75043153973282
H         4.01125406626055    2.16196023976009    1.37493164053863
C         5.56703299946865    5.09411572530485    2.17258846855557
C         4.99287074938472    7.68739167175377    4.67393629957253
H         5.02824826550323    8.52833143897260    5.36137055414335
H         4.00849395590341    7.53777295677398    4.23743475568119
C         8.30586238636626    8.37235010149768    4.30521367589882
C         3.50201828938179    4.79739487066134    0.98209421864083
H         2.71922948033039    4.17243908020409    0.57914567065346
O         5.99743651889262   10.37400536772136    3.48387917995814
C         8.21753309247921    2.69957798742968    3.16381450942561
H         8.41387133442918    1.63907020045454    3.21358733855581
C         5.92755066267791    2.30486783785844    2.27779890592508
H         6.08737332518336    1.23836349767215    2.33533923486304
C         6.76427111139579    4.56145360905627    2.72665652344387
C         9.18877097590257    3.62266526440759    3.46913943074394
H        10.17943462802195    3.30038181488709    3.75015175276971
C         4.47617227020136    8.43272971673898    1.14113109191920
H         4.15276399241802    8.97181172533687    2.03047904436002
H         3.80037755714962    8.67765161274856    0.32557274483687
H         5.48249941619944    8.76786836923817    0.88862371423247
C         3.47935217422693    6.16271916993354    0.82710585820171
H         2.67960030791863    6.63692619583297    0.27958212854802
C         6.29347260948018    9.26898192724460    3.37146971697111

