56
CSD_code = JUBYEM | q = 0 | S = 0 | Stoichiometry = C27H23ClMoN2O2 | MND = 8
Mo       -7.67635831417669    2.87019139503200   17.77540289445878
Cl       -9.43026560086925    4.25109065603928   16.73613769405200
O        -9.67144771441735    2.12450887775215   20.00574780749653
O        -7.48077702203588    4.94044110961585   20.05272704601871
N        -6.45509007214815    3.62265666789551   16.19115196621527
C        -7.49964895488433    4.21197550222639   19.16495977559380
C        -8.95563382531678    2.34022838071842   19.13382231653949
C        -5.95174293248298    1.52362075528009   18.07821315979559
H        -5.42419608507355    1.12701685684854   17.21243253651850
C        -5.87890960079112    2.32736395130278   20.26190363541882
C        -7.16076321468576    1.61118768704782   15.16688105219652
N        -8.08040266064785    1.53382016918245   16.15679100530124
C        -5.36508320135379    2.91564166777119   14.12958195018678
C        -5.50623831578200    2.93411042795928   21.45282214138068
C        -8.05672859015657   -0.32194987043849   14.05498694236616
H        -8.03339167732525   -1.06238681058676   13.26974366958632
C        -5.54315817875728    2.62811054482942   18.87422480861932
H        -4.69663978894007    3.25524785564492   18.61261947054154
C        -5.81566654283417    4.78582171997550   16.10561013511959
C        -5.26001058653157    1.92433125702603   13.11406275605993
H        -4.51839729994348    2.06528451946768   12.34182929921517
C        -6.28802826284090    2.73261895466656   15.18540717871151
C        -9.04843373601324   -0.31973833844267   15.00829641000908
H        -9.83650699319553   -1.05598859627158   14.97615069338070
C        -6.87141342906763    1.29054360540116   22.60640513527584
H        -7.24267817010463    0.89890308511956   23.54255780099180
C        -7.09462953829823    0.69371990675880   14.09261193132506
C        -4.61621760737299    4.09795805486495   14.12857837120840
H        -3.88000951438212    4.27307586482774   13.35869972160934
C        -9.04958966345280    0.63075468614179   16.03666850048912
C        -7.26082051226915    0.67867455996826   21.41693052508709
C        -6.74616868634236    1.21264873130285   20.24421983378157
C        -4.87726875684930    5.03890833082202   15.09745025692020
H        -4.35650063267004    5.98385834811153   15.09346274072462
C       -10.17546279575217    0.64487244329260   17.01387048461288
H        -9.85557892693734    0.26641080124142   17.98383779770024
H       -10.99495722683294    0.02628861960751   16.65633354722818
H       -10.53065114528878    1.66714866559044   17.14679274601539
C        -6.93384073558755    0.84047592172493   18.84591693046399
H        -7.32869238450824   -0.12927387447951   18.55953721341895
C        -8.18455546793868   -0.50181128178105   21.41083181123104
H        -9.15330891366233   -0.21820499835491   21.00117593180781
H        -8.33642756463883   -0.87450032645821   22.42060816234114
H        -7.77881540750503   -1.30610156908406   20.79836527159563
C        -6.09167036225197    0.85602657570031   13.09624107667214
H        -6.03379383904552    0.11871858803024   12.30933002356237
C        -6.02179674440593    2.38275615219940   22.62378858478874
H        -5.74813159293498    2.82024471540405   23.57314217505368
C        -6.12144789981995    5.85328824938321   17.10047266184402
H        -7.20169033821008    5.94554987025522   17.21642489006656
H        -5.71557364438435    6.80626486430880   16.77016765693152
H        -5.69357440003440    5.61489258223323   18.07332988751704
C        -4.59095007887448    4.12074162514667   21.48524732044544
H        -3.71649018040710    3.95115000395273   20.85872209656274
H        -4.25964672577178    4.32105144477969   22.50082244642764
H        -5.10932794319388    5.00386041344871   21.11405012151349

