52
CSD_code = JUBYOW | q = 0 | S = 0 | Stoichiometry = C25H21ClMoN2O2 | MND = 8
Mo        1.86698697489168    3.26526533191300    0.37974704707317
Cl        0.80747269054767    3.85736026237937   -1.76372801934959
O         1.33914254406945    0.37479990354186   -0.59381323020994
O         4.43238697634415    2.80719384902657   -1.28979926049910
N         1.96482974173893    5.27759938276191    0.73039549371210
C         1.52750356145223    1.43464517452735   -0.20261041505431
N        -0.01113224575172    3.73497682848558    1.13899062283777
C        -0.21744578060427    5.04230578929684    1.44830124575881
C         2.49603688373455    3.14452600217034    2.52787967755817
H         2.09225665626754    3.89597416264669    3.20321131625896
C         3.10506979394461    0.96790223611688    1.99546463704072
C         3.50038332852539    3.00354772338497   -0.65425871990024
C         3.08879359354965    6.05586164083169    0.44565899071510
C         3.21087976007044   -0.41660735977701    1.92771742927916
C         4.21142157610567    1.80426553699423    1.72023800861937
C        -1.46778279860852    5.52413685400278    1.87320696976108
H        -1.57114807188495    6.57039042194630    2.11684619836136
C         3.62921992993621    6.03472095585946   -0.83811044067494
H         3.13326823808099    5.46070019479152   -1.60918202865704
C        -2.52881602105627    4.65882075615807    1.94786665386822
H        -3.50292966420551    4.99634953441265    2.26604435635054
C        -1.06651822332109    2.91850229721709    1.19449296918754
H        -0.88274486316661    1.88919651627823    0.91246446939283
C         0.91611237674578    5.86185727055681    1.23591258633505
H         0.87951642167916    6.93423307410265    1.41383226502448
C         4.45740726363961   -0.93059855063248    1.58471246094428
H         4.58555595952049   -2.00206705252134    1.53139602196196
C         2.04611368576979   -1.31026810059319    2.22707373436070
H         1.64908914177254   -1.10137218757867    3.22008388107321
H         2.34330459844704   -2.35467703972444    2.18383152477778
H         1.24842670459693   -1.14841048530797    1.50367883554246
C         1.98645579387798    1.83763313884156    2.33283755178039
H         1.09204061500539    1.46964923694502    2.82340412302851
C         6.63171697272749    2.15828461640003    1.10745407978134
H         6.42274781877551    2.83692168572280    0.28243974924265
H         7.50448675161862    1.56221850532000    0.85463607667178
H         6.86370877253559    2.75996249597157    1.98611003379968
C         3.75950187925426    3.18021727630413    1.88504027793705
H         4.45363014341016    4.00806786334565    1.97871747744219
C         5.44998885675130    1.27712097452129    1.37568986347527
C         3.68734704319443    6.83545260355696    1.43373024742818
H         3.26927847825705    6.84604886123560    2.43167351398220
C         5.37501298625771    7.52347007151863   -0.12631549249630
H         6.26928383150112    8.08622889278225   -0.34696344781145
C        -2.32243450334528    3.32257070870464    1.58425494586854
H        -3.13446655867667    2.61408515515146    1.61034420782283
C         5.54247279674156   -0.11020073522986    1.31818636811549
H         6.49035358414973   -0.56210226520850    1.06400206310672
C         4.76327829169591    6.77170678699675   -1.11808413663958
H         5.17402652810646    6.75740162213886   -2.11614221466450
C         4.83397714933445    7.55413324436820    1.14739480942446
H         5.30333203598747    8.14119833735331    1.92304462125326

