42
CSD_code = JUBYAG | q = 0 | S = 0 | Stoichiometry = C9H22Cl2N2O3RuS3 | MND = 6
Ru        0.34305200600852    3.31694678906544    2.41875796328584
Cl        1.02580713550239    4.04978976579341    4.53928399656825
Cl       -0.68436684357749    5.34956176033628    1.85339233537637
S        -0.52657191893890    2.44035833442608    0.46734095129918
S         1.41332484270498    1.37934491979501    2.85127411447488
S        -1.56841759263491    2.80196762112352    3.50030909478909
O         0.52441142592715    2.32446461426615   -0.57141509776355
O         0.52588012657441    0.22077473280017    2.90645746914681
O        -2.60698130336671    2.29580204148756    2.60905085990591
N         2.05598363950019    4.13282494570586    1.53167490641095
N         2.28879720461749    4.15896849045593    0.22001560391505
C        -1.89089735139929    3.33610627259681   -0.31533790481053
C        -1.28508393755932    0.79355023883142    0.47610127119286
C         2.66030457355892    0.98566723073379    1.57871351659479
C         2.51685542362649    1.24753284901905    4.29096385040448
C        -1.44682539773654    1.63573162304796    4.88779791048210
C        -2.30441766778561    4.18429411459268    4.41200755675211
C         3.30693390363197    4.97923584345404   -0.07172419666014
C         3.75114724854737    5.51633427703372    1.11689022930625
C         2.92812801105933    4.95784312969317    2.09595087894750
H         1.71042596741465    3.57082657576387   -0.39319609852353
H         3.64165485363519    5.12980678923004   -1.07772868942586
H         4.54580272917518    6.21690221739942    1.26394945829585
H         2.92675786022949    5.12355389796834    3.15717968412376
H        -1.57847879353292    4.36686770718317   -0.45016325564220
H        -2.11330474054391    2.86205193847356   -1.26401084616792
H        -2.72637679276112    3.28966915870396    0.37345590636902
H        -0.65199100784180    0.12846947140465    1.05468585289935
H        -2.25839217701061    0.87400872036887    0.94198382575749
H        -1.34579754783871    0.47033672763333   -0.55648183446455
H         2.18415072996239    1.08822227788840    0.60705521065772
H         3.48009073070888    1.68805203720623    1.67591718529536
H         2.99360196549759   -0.03475504962490    1.72830278277033
H         1.91612216095481    1.38679267041310    5.18273727979003
H         2.97528480659623    0.26582373444981    4.28346222930946
H         3.24783806610033    2.04407763546460    4.22130794576282
H        -1.03608668974325    0.70855304419498    4.50056184439051
H        -0.78276423772644    2.07755145595608    5.62253084768280
H        -2.43953717026913    1.47408345771292    5.29072309846230
H        -2.50799405420769    4.97157196511522    3.69212638219148
H        -3.21944958744458    3.83659797265713    4.87668313645504
H        -1.57742059961502    4.52683600017951    5.14021274439188

