56
CSD_code = JUBYUC | q = 0 | S = 0 | Stoichiometry = C27H23ClMoN2O2 | MND = 8
Mo       12.88150257031373    1.55889020458139    4.86674033842378
Cl       14.83798304505284    2.54636215736651    3.74288889790318
C        11.74300001686322    2.77208339875740    3.86917669935948
O        11.06035388379898    3.40062457089564    3.19241196241804
C        14.92536392240894   -0.78567129073650    5.36675940048945
N        13.52497967219687    2.73211877895192    6.53283828000630
C        11.54614919733762    0.66495953352962    6.38079211207718
H        11.91772586878588    0.49390193594848    7.38966821754368
C        14.60758407795985    0.70451476423803    7.08819850997368
C        15.36599912041994   -0.07241172676755    7.99421504726226
C        12.47170966028584    0.60307928539017    3.22923499785987
N        14.33460584196393    0.31600596500477    5.82086876247264
C        14.50655362104177    2.50050497569552    8.75124540955186
O        12.15802020242560    0.13454420102079    2.22867404328494
C        15.59979888897005    0.41907278650043    9.30920134781603
H        16.14250054836470   -0.21155731802930    9.99768036171583
C        14.17332153816209    2.00248690400730    7.47039069653237
C        15.68314552829489   -1.61420737926740    6.20371494045692
H        16.11044612685894   -2.51752590936227    5.79677450572643
C        15.18685787528490    1.65616654999047    9.67304711078600
H        15.39014190072656    2.04281982465330   10.66067011584056
C        14.16762335804463    3.82911057778307    9.03186479092665
H        14.37790297808293    4.24869773563544   10.00403841906790
C         9.78135164489766    1.25401256838855    4.98182505599949
C        13.31650000562209    4.02177107424814    6.78253832835987
C         8.63702631753741    1.81987751988007    4.43812744874988
C        14.78899715385933   -1.13540221944416    3.92393038119154
H        13.79146737744908   -1.51536318935772    3.70700021570439
H        15.51439609642441   -1.89704279358086    3.64880948516075
H        14.95528516931582   -0.24630878148629    3.31514837103159
C        15.87680219738552   -1.28848011638792    7.52614189244933
H        16.44032805171632   -1.93009800719630    8.18657257425103
C        12.77133030262481    4.88787995453199    5.69841062280590
H        13.30280739888839    4.68672999505641    4.76789659869155
H        12.88906724798133    5.93731160105918    5.95687443404620
H        11.71265440066726    4.68974055224425    5.53594104785138
C        10.21625536394249   -0.03507539461104    4.60283098293018
C         8.36431534278565   -0.21371769811342    3.13995147545772
H         7.78541437523464   -0.77239302284545    2.41859703884346
C        11.43798990906104   -0.30998470682559    5.35173899507304
H        11.83075511952245   -1.31649111480596    5.45704553526005
C        10.74031627796129    1.75767815834293    5.95932996058593
H        10.50977470906840    2.59800604901203    6.60666619449506
C         7.93812030058091    1.04943864196159    3.51149889380719
H         7.03560294625262    1.44959032342530    3.07226252119857
C         9.96991314265657   -2.15644836781713    3.25797736206468
H        10.87221036212651   -2.08547780352141    2.65173654359703
H         9.20193732592304   -2.65332506650896    2.67077160839978
H        10.19413467782915   -2.76867135367345    4.13057343463168
C         8.16591937418183    3.18628659414431    4.83532228723314
H         8.07730482296757    3.26238646716683    5.91867759160859
H         7.19796160729097    3.40198261642383    4.39057351848777
H         8.87454094375284    3.94179908925174    4.49880547456963
C         9.51685420660511   -0.78863282259136    3.67104678528520
C        13.61020252344935    4.58821686420679    8.02913027850273
H        13.38769386078980    5.63093386364231    8.19465209418260

