39
CSD_code = JUBYIQ | q = 1 | S = 0 | Stoichiometry = C17H17MoN2O2(1+) | MND = 9
Mo        5.62482780222394    4.62593504509265    3.70728122320386
O         4.62884774739485    5.34594966506297    0.86718247655176
N         5.38080300387939    3.64357742980813    5.47035199505382
N         5.13772958517788    2.78721605828144    3.05804198086809
C         7.87176634169771    4.64999318900392    4.50274941597484
O         2.78580655429725    5.68512958995550    4.24944393301887
C         5.03699556229851    5.08714465317782    1.90007475493123
C         4.99327775552909    1.73349943782208    2.60763664524100
C         5.15485775548065    3.09269198888582    6.45631385807798
C         7.90892015978773    4.71841361128611    3.07686390933212
C         8.57933530168417    3.73813311730844    2.31559911554281
C         7.13614753485044    5.81786684777300    4.97490385746272
H         7.09899885276301    6.15029392549149    6.00559978061417
C         9.21563359474285    2.73657131103707    3.01995516476367
H         9.75271520554427    1.97213033488460    2.47900979087089
C         6.83470086053745    6.61843319324675    3.87084951710302
H         6.46212943567842    7.63562409396772    3.90222302991252
C         9.21935909302814    2.69409165393096    4.41849977250788
H         9.76993060494589    1.90493684699292    4.90847377648454
C         3.81588042194493    5.22646910924689    4.06206342084320
C         8.65627863936014    3.62761755936352    6.68720932812656
H         8.93216254339652    2.64153268861149    7.05118943975762
H         7.71663087623226    3.92925588386286    7.14698646773451
H         9.42582741399582    4.33025540379777    7.00951788823820
C         7.19941747285386    5.91382531197433    2.68332987857905
H         7.28266602755783    6.37847594437432    1.70712964049597
C         8.61627849413959    3.82621693947741    0.82321686053966
H         9.17523685446194    4.70846206458327    0.51101576525389
H         7.60799661645141    3.90736459342339    0.41452628950834
H         9.09739361932933    2.95017433152014    0.39800994545630
C         4.87305269420654    2.43872383449066    7.69030206828832
H         4.87217924943979    3.16454912882098    8.50454973106911
H         5.61752747604972    1.66851328790262    7.89389465980558
H         3.88679483991963    1.97651746737684    7.63393648492410
C         8.56731294965382    3.63417095542459    5.19173773241775
C         4.74584158240448    0.44986534359877    2.03460630104850
H         4.54899262544851    0.56553781537508    0.96808408130324
H         3.87337415487287   -0.00591887453689    2.50465788440808
H         5.60917269672499   -0.20224078170672    2.16718213468862

