47
CSD_code = JUBZAJ | q = 1 | S = 0 | Stoichiometry = C23H19MoN2O2(1+) | MND = 9
Mo       -2.29559834809846    5.65845944620979    3.13078504346671
C        -3.02150195005515    4.58780657809241    1.68417007008632
C        -1.72142788618744    7.61953964895979    4.31040059430252
N        -3.87862508789358    4.70925991362226    4.18084295287477
C        -0.86421586239622    4.77442586093517    2.15833119646413
O        -0.05557705266425    4.27116985678921    1.52604696688981
O        -3.40476422656247    3.97740030790331    0.79592768505754
N        -1.42581038458134    4.65088847695136    4.78046496447350
C        -4.67649790991192    3.83096678324474    6.26681158950920
H        -4.46058761715592    3.49307948314212    7.26639733703631
C        -2.23953179300858    4.27720644427956    5.79198876580507
C        -3.43201962392888    7.58660735189713    2.73756739251329
H        -4.39772181247885    7.78555247406956    2.29157819122706
C        -5.97024852157617    3.81795568496978    5.79135257785794
H        -6.78243077923930    3.47312700537946    6.41083166057656
C        -1.74055758904130    3.90899914792652    7.04492507547522
H        -2.41737661016786    3.63097998049593    7.83527866008136
C        -3.64336281059004    4.27384294114278    5.43521347082855
C        -3.15108285820654    7.58201874902095    4.14869818257147
C        -2.19421844682520    7.68244070406770    2.05354679662865
H        -2.07407934634176    7.91044200619742    0.99997223321902
C         0.45532177599719    4.26662320949941    6.20530917424498
H         1.52685921390381    4.26347775779991    6.31899448339832
C        -0.10673385894203    4.62756071891661    5.00075338510156
H         0.52408719695642    4.90122183672647    4.16616254096239
C        -5.13610528213003    4.68719332928103    3.73043453644463
H        -5.28751377089637    5.02476331779435    2.71365597488088
C        -1.14096662906654    7.68162166339759    5.60379144966664
C        -0.37960390581100    3.90658717523607    7.26031133947291
H         0.02833302689111    3.62458634494224    8.21746305766697
C        -4.00340359274241    7.62820474415925    5.28327550484036
C        -6.20146492045669    4.24814924827603    4.48722909889742
H        -7.19415136234660    4.24228847099848    4.06796751553448
C        -2.00175958505681    7.64423387168984    6.67475566017955
H        -1.59916189885235    7.68151405544787    7.67614081596530
C        -1.13683391801190    7.62975378132664    3.00461842313927
H        -0.10048377995593    7.84870399625409    2.78232412568285
C        -3.39855024342475    7.61933397296986    6.51802396888425
H        -4.01401809139016    7.64142974470470    7.40522732598076
C        -5.48636984472842    7.76255433582840    5.12764572238913
H        -5.99624063091093    7.49734692817434    6.05033296577399
H        -5.86841740614685    7.14036980647150    4.31987330642082
H        -5.73248493768420    8.79896546746197    4.89264918163367
C         0.33498606851895    7.86081733024559    5.77374133421836
H         0.60108541274573    8.89716001430617    5.56178650798445
H         0.90086672691899    7.22877282115266    5.09184373533847
H         0.63446075353280    7.63839721164125    6.79445745835331

