41
CSD_code = JUBZOV | q = 0 | S = 0 | Stoichiometry = C14H20N2PdS4 | MND = 4
Pd        0.10498860107979   -0.36536809541646    4.57867110199969
S        -0.62676729201764    1.34351694186482    3.25597223090472
S         0.72062489387201    1.27149704099997    6.04353226948572
S        -1.89810075470081    2.01368044399708    0.68000829069081
S         1.97888891166201    1.80931951478484    8.65655879451756
N        -0.45728376556856   -1.78716610793868    3.21809353252881
N         0.77665212778950   -1.85502715752544    5.81202074878868
C        -1.59698722977172    3.56639072512319    1.55995282689125
C        -1.30795792379538    0.78614499607347    1.80017031813336
C        -1.45048429495884   -0.51828783717312    1.38278442097227
C        -1.04047026891953   -1.68276553855884    2.05656506493014
C        -1.35521164587160   -2.88754696152088    1.19946549315732
C        -2.39959743042830   -2.37610854247911    0.20742979638729
C        -2.07416202151962   -0.88809728346305    0.05749247125886
C         1.52483614192431    3.40395615419745    7.93056363896017
C         1.42871007357858    0.64066724267787    7.45581403247608
C         1.62999783887070   -0.68298576326936    7.77751689194242
C         1.32273347306636   -1.81075259618591    6.99530414781120
C         1.75922133296812   -3.05739525877679    7.73066994790680
C         1.90364200167241   -2.60214278112205    9.18268234691794
C         2.27015448201272   -1.12009314362565    9.07408408779716
H        -0.26140760655269   -2.75663589450339    3.47096172710894
H         0.67013275964019   -2.80982545768052    5.46658534156172
H        -1.70593627875365   -3.73462066398093    1.79150833080913
H        -0.44129047952713   -3.19108512285507    0.67964356841377
H        -2.36968094072719   -2.90830145007891   -0.74190208845634
H        -3.39649290900067   -2.49246952485148    0.63521215032158
H        -2.95779899899607   -0.28595417186388   -0.15543826601821
H        -1.35707141339504   -0.71909776934807   -0.75083101312771
H        -0.53276825464010    3.67946346170686    1.74152338262305
H        -2.14123531360426    3.56175967162046    2.49910693322324
H        -1.96172439566905    4.35371694135815    0.90792472294909
H         2.72407054921618   -3.37820817534328    7.32611324768628
H         1.05022495763324   -3.87799050514854    7.60805655312271
H         2.64875376868810   -3.17816048595000    9.72872685696997
H         0.94588327670712   -2.70661991912707    9.69453193120235
H         3.35383865545708   -0.98327849384095    9.01837617073254
H         1.90797496954764   -0.53641110492447    9.92076551259314
H         2.04097218008836    3.53093575767266    6.98406781247777
H         1.84088950118573    4.15737985102253    8.64506169391646
H         0.45023872176417    3.44126706346098    7.78195297742423

