58
CSD_code = JUCNEA | q = 0 | S = 0 | Stoichiometry = C27H26NO2PPd | MND = 5
Pd        6.06831021740907    0.76200568818113   15.57609231043807
P         4.12548494755488    0.26142553182085   16.63759812953626
O        10.15369506397763   -2.03107892028932   17.10125884711035
O         8.18810831733555   -3.11171128260075   17.25409029021860
N         5.34887338654371   -0.05728850820216   12.63106203654768
C         8.10949925983503   -0.88324990684453   16.52552711574127
C         7.90217572018813    0.03015338425496   17.75447148948351
C         7.20929277994404    1.32229893654477   17.36680005971324
C         7.64605631059740    1.98636926377178   16.21388614227058
C         8.08640715193751    1.21111337835352   15.11865314149427
C         8.80347512727649   -0.09666912641493   15.39904722671794
C         8.95809999369389   -2.05468130944580   16.97155437457537
C         8.82545696115941   -4.28736710456550   17.73732963496642
C         3.32693481041486    1.85736591604587   17.00144817809684
C         3.83117394095223    2.97668744346401   16.34306622844939
C         3.25557445522963    4.21788589128339   16.54803716176617
C         2.17711591134895    4.34402057378904   17.40907146862999
C         1.66309843501537    3.22887103458008   18.05271214161102
C         2.22895657598677    1.98413932433510   17.84579201876989
C         4.42628622767698   -0.56277937560860   18.22853862506631
C         4.43907429536775    0.09220272968551   19.45406885496305
C         4.80990362757351   -0.59487565930167   20.59738370028448
C         5.18037239690909   -1.92774162576100   20.52357514809719
C         5.18663798314531   -2.58038033407276   19.29977786502309
C         4.81790564143274   -1.90000971230575   18.15590402317867
C         2.69652388650145   -0.64529480088648   15.96366127645294
C         1.86568284436278   -1.43789849627638   16.74793675901832
C         0.75615622753998   -2.03888260197290   16.18108420744244
C         0.46855139545058   -1.84883165491290   14.83929414968693
C         1.29285736528263   -1.05524879518934   14.05773973614303
C         2.40406353049226   -0.45233753660584   14.61707419897469
C         5.60500268317318    0.25219723623035   13.70856671451620
H         7.12968154545113   -1.28261317402378   16.17928888426627
H         8.88477366769252    0.26424152753986   18.18615421352046
H         7.32480820646461   -0.50219633106164   18.51720649338580
H         6.87493087193578    1.91993433148417   18.21479498382083
H         7.43715173819638    3.05166853588621   16.07739478442626
H         8.42768813496695    1.73024756426451   14.22403644851923
H         8.83590177238935   -0.70687576070462   14.49041877569623
H         9.83890230669976    0.10625016835847   15.69990379085313
H         8.25873517679118   -4.64105927663348   18.59742188962144
H         8.81957771272654   -5.04340082888140   16.95107537587725
H         9.85419586555994   -4.06161631665257   18.02374463068370
H         4.67435351514998    2.85680610177382   15.64711635300904
H         3.64350709267452    5.08678333604895   16.03706835491903
H         1.72989811742927    5.31310988769030   17.57364514517399
H         0.81520988876467    3.33102569863529   18.71419904088703
H         1.82216090123035    1.10900589721799   18.33355562016698
H         4.16560903785015    1.13686103025702   19.51100089944507
H         4.81538218367107   -0.08560333686518   21.55018576558686
H         5.47199880332590   -2.45612339100291   21.41919453453486
H         5.48532134765442   -3.61619027725048   19.23746946962127
H         4.82958091655907   -2.39402546709892   17.19071739054767
H         2.09011451106810   -1.59383284750404   17.79431017817248
H         0.11353737761002   -2.65843262333373   16.78987857021507
H        -0.39800452799070   -2.32305065655107   14.40272295607863
H         1.07347048921929   -0.90950685347685   13.01096809837403
H         3.06600587715606    0.15648348096286   14.01352409830709

