31
CSD_code = JUDBUF | q = 1 | S = 0 | Stoichiometry = C13H14MnO3(1+) | MND = 9
Mn        5.72626506407626   -3.56252540625001    2.75120033938265
C         7.27203476880643   -1.72211230931286    2.50544286395758
C         6.34777230148899   -1.68117152330406    1.43691954587900
C         4.96322762054116   -1.61783050203557    1.66163124249372
C         4.46214285771800   -1.59732377794174    2.97152727782217
C         5.36161411128789   -1.63877859783539    4.04956645095717
C         6.74438998025304   -1.69969678847804    3.81791977817918
C         8.76213405225572   -1.72170530818621    2.21650784006937
C         9.60483985271450   -1.85736448159729    3.48751463306278
C         9.11398105249135   -0.39164800134010    1.52764736491373
C         9.09391751717790   -2.89914705410229    1.28524492287316
C         6.82436497647049   -4.64492703852160    3.69438369184686
O         7.53279538380323   -5.28502545332372    4.31158152213187
C         5.90197204913639   -4.59688015282638    1.27727806471102
O         6.02070013338700   -5.19378189212703    0.31803259179725
C         4.28370455079017   -4.51734418449545    3.29130146026213
O         3.35512694091384   -5.06392072250988    3.64482237444118
H         6.71055739377599   -1.60863857989641    0.41855205195893
H         4.28844341792287   -1.49713673388700    0.82151231594378
H         3.40193194470821   -1.45943381350707    3.14898038783098
H         4.99407112179163   -1.53412057513362    5.06434016725045
H         7.41311425890899   -1.64264136588073    4.66727739097333
H         9.37811319439762   -2.77938026133586    4.02056915192828
H         9.46875458830681   -1.00783305795498    4.15326367592201
H        10.65600950834832   -1.88649230162729    3.21426249943751
H        10.18161427888620   -0.36137908338693    1.33018780333560
H         8.86330651684621    0.45218200868523    2.16731396389237
H         8.59429837311414   -0.27374569896222    0.58020036709097
H         8.62841653153868   -2.79601576800262    0.30872597555399
H         8.76771681638221   -3.84303948630485    1.73046199320312
H        10.16816884175903   -2.94944208861796    1.13243029089832

