50
CSD_code = JUDCEQ | q = 0 | S = 0 | Stoichiometry = C16H28Cl2N2OZn | MND = 4
Zn        0.50285376099635    1.54613618972852   11.74450249577088
Cl        0.22015947562349    3.08374048846169   10.24860201563952
Cl        2.13898526194802    1.95367466455624   13.37371689745380
O         1.10684237474052   -0.19539653173743   11.39523112723852
N        -1.35508558236227    0.99373600312252   12.72709794534839
N         3.83100982764276   -0.39251447207860   12.97605425182721
C         0.85600930136355   -1.08489266869725   12.31802715989793
C        -0.43027664977602   -1.29349389150004   12.85843216716285
C        -0.63223451241553   -2.27001480191796   13.81246892446221
C         0.39175696145471   -3.09149431687312   14.28157447773917
C         1.66058983519060   -2.87148220907607   13.76696772934243
C         1.89933944776820   -1.89337612111675   12.81573271646123
C        -1.55900998322842   -0.42502573290935   12.37896886924121
C         3.27596584395493   -1.59483403087246   12.29948323572745
C         0.08548314909232   -4.15702426080797   15.32254854605393
C         1.32561531247175   -4.96157895590671   15.72190512238978
C        -0.47412707553349   -3.48517298392908   16.58460918966696
C        -0.95188315809047   -5.13391937461881   14.75209038146340
C        -2.46053764017594    1.78339119372627   12.18778404551777
C        -1.31952479011510    1.14140409814277   14.18015599793550
C         4.16339860866753   -0.66354444104801   14.37513702796064
C         4.96777354581154    0.17729860707393   12.25260253695284
H         3.07770101600676    0.38932788890842   13.01625912155070
H        -1.63372663957359   -2.39508110962545   14.19987429936574
H         2.49713530944648   -3.46888428058145   14.09614299443193
H        -1.61461824349917   -0.48656185715106   11.28783250279854
H        -2.51298195217542   -0.77451505469892   12.80124305317188
H         3.19635550908594   -1.36417931508318   11.23518554075217
H         3.96257585400959   -2.43149801710886   12.45167001405487
H         1.75262601234356   -5.47242238396070   14.86213524850861
H         1.04745436596679   -5.71517404762805   16.45576613338753
H         2.08160409635244   -4.32081879162142   16.17057010623124
H        -1.39718474411654   -2.95317401300859   16.37273391271623
H         0.24538224031488   -2.77282289768268   16.98341380223040
H        -0.68021096706180   -4.23213697994924   17.34829508243108
H        -0.56816319851503   -5.60215039015312   13.84832084429186
H        -1.87871566398974   -4.62520155117130   14.50294062355309
H        -1.17501672391639   -5.91287312350159   15.47824324677141
H        -2.48123421204710    1.69588245252633   11.10312900608247
H        -2.31767445758881    2.83300233467796   12.43926817649723
H        -3.42083223333099    1.44407981228148   12.59604604096408
H        -0.50364243930134    0.54669310225748   14.58804995009276
H        -2.26297011386187    0.80953181487442   14.63132764308988
H        -1.15317029137168    2.18609708999822   14.43855130220074
H         3.30454628143479   -1.12141341405228   14.86115881957709
H         4.38812280013595    0.27399346062149   14.87795609532478
H         5.02022881842309   -1.33512854271487   14.43874444854761
H         4.65925550093176    0.44358732514210   11.24386437674583
H         5.78786635079394   -0.54006653262829   12.20458075725672
H         5.29968441009734    1.08069056939393   12.75980399615563

