81
CSD_code = JUDGOE | q = 0 | S = 0 | Stoichiometry = C24H50P2Si4Zr | MND = 12
Zr        4.68431844631702    5.47231306520433    4.56971664289173
P         5.58173755149701    3.26423652911174    3.55812070656299
P         6.28733162965143    7.49718786626523    4.38620175355130
Si        7.75765370077652    2.98946942367946    3.92360164538887
Si        5.21221791462292    2.12240748255867    1.68368176860186
Si        7.64388483471219    8.56163507259834    5.79407809888128
Si        7.39412868779356    7.52850431192147    2.45837166926842
C         8.31133785983391    4.41368265286180    5.07438680699823
C         8.88768631523427    3.05427912530344    2.37622706154145
C         8.12441765639153    1.33941593994229    4.83158546575660
C         3.33352573334197    1.79943985482990    1.49134527331580
C         6.03355782678434    0.40003183897765    1.83707848493640
C         5.82225487971198    2.91008850859138    0.04227437218165
C         9.19287721058421    7.60941452002159    6.41150419078989
C         6.65620691183576    9.10094825998917    7.34479804481586
C         8.25425675033335   10.17637245815281    4.96669700975644
C         7.12034815116485    9.17320256950699    1.50901572857798
C         9.28610733017782    7.23847279096106    2.56805883177440
C         6.67732697895178    6.11807155021146    1.38320652217799
C         2.81796526722946    7.01899622793735    3.91524853748316
C         3.60425211503704    6.80607593629489    2.75492507775075
C         3.42793270789793    5.46656194571747    2.34278163282408
C         2.53522663898664    4.84836285651024    3.24262953172321
C         2.14504610079996    5.80869353412818    4.19688833856811
C         2.66111245860688    8.32982533333819    4.63326209248137
C         3.84776070259307    4.12067680748330    6.51465468230895
C         5.25997059771009    4.17661210635823    6.62575978974984
C         5.62460582316494    5.50323433662259    6.94587774299702
C         4.44409291833761    6.26977451869820    7.03396141111626
C         3.35126848188163    5.41493501687974    6.78886926532146
C         3.04259007621170    2.87808845651696    6.25775814490250
H         4.14053056752395    7.57919246184306    2.21778588879331
H         3.80570788689599    5.02477804072187    1.43018287642197
H         2.11998758590701    3.85493088866121    3.14305089108053
H         1.33495738044490    5.68795816704772    4.90455088784218
H         5.91981015522910    3.31791085510850    6.59365163207745
H         6.61718309022311    5.84760022492024    7.20438937547086
H         4.37827835370658    7.29807497963721    7.36188118410088
H         2.31321444451850    5.66777604788563    6.96243069140111
H         9.35807129182263    4.65572061554639    4.91836806801972
H         7.71857447548356    5.31459844014143    4.88160277834918
H         8.20000539856180    4.14778419581101    6.12131369206662
H         8.81185643577459    4.01006871541990    1.86805650183060
H         9.92475797146483    2.91064799635164    2.66383003259074
H         8.63354818372548    2.27691324718750    1.66395333184036
H         7.45476935035911    1.19162916389347    5.67360726058717
H         8.00450854806098    0.48952169683126    4.16894210615816
H         9.14266234830259    1.32504223925782    5.20819596498230
H         2.79672694460931    2.67907435694182    1.15193759783946
H         3.16608158642304    1.01443790017744    0.76050346653269
H         2.89156788133065    1.47547248525854    2.42870389665324
H         5.77392078492235   -0.06658040945287    2.78153991508840
H         5.70282275713570   -0.25533136281586    1.03746824056127
H         7.11492835544747    0.46491483692133    1.78764880183813
H         5.29876509989062    3.83259545923729   -0.18921646734927
H         6.88253945940012    3.13664939319794    0.07708979485709
H         5.65653697231688    2.22398540336214   -0.78297719523373
H         8.93026520393910    6.73588453245764    7.00026599253543
H         9.81049707212945    7.27238078928130    5.58579723997784
H         9.80053956255384    8.25557911193464    7.03801018830992
H         6.48454093791573    8.27811598673367    8.03081306460970
H         7.20452451812379    9.86601902929903    7.88553121341865
H         5.69205209275692    9.51882549101428    7.07149546133510
H         8.94830018081668    9.97625789916575    4.15785746218326
H         7.42070816082635   10.73597778201357    4.55536385512323
H         8.75913870950113   10.81000938465924    5.68909870133665
H         6.06805348294880    9.43845434388373    1.46892035577726
H         7.64383998096235    9.99505422772351    1.98473183082959
H         7.48385774838578    9.09443487895652    0.48897627244817
H         9.51561627385522    6.27075408913812    3.00203493258278
H         9.72828930788276    7.27319348098441    1.57700495376445
H         9.77157591399264    7.99781501718155    3.17138874719147
H         6.35144171973845    5.28329677952764    2.01335222624550
H         5.82863275255487    6.45547081997638    0.79581499214921
H         7.41943492089659    5.74623314021977    0.68350988389720
H         2.13385938752718    8.19696972555389    5.57810212949859
H         3.64169823036534    8.77448103281531    4.82967179551105
H         2.09150673054579    9.03566624344700    4.02474060918493
H         1.99825586745044    3.12259330425492    6.06304065217059
H         3.44890026504906    2.33345900768723    5.39977006186279
H         3.07815741181695    2.21149696596993    7.12224983872242

