41
CSD_code = JUDPED | q = 1 | S = 0 | Stoichiometry = C15H16ClFeN8(1+) | MND = 5
Fe       -1.67206037201826    6.92535995575369   14.03520035580315
Cl       -2.96884319694689    5.96842543945680   12.67564929145148
N        -1.85320347203395    8.83490241524714   13.21368297640779
N        -2.51780858757933   10.85881625284064   12.67646028664440
N        -0.09678696165727    6.71392979300490   12.86215529943210
N         1.96128676645680    6.36851496164613   12.20680644581291
N        -0.38069181930670    7.10633268610393   15.52169653311736
N         1.25395069005571    6.52192240180983   16.86283553726746
N        -3.18056972009527    7.19957036168901   15.35368202016514
N        -5.09647751030729    7.04951854226674   16.40267608650467
C        -2.39158732638293    9.94985352975664   13.65896271264484
C        -2.03593538927620   10.29010009850501   11.53475036329849
C        -1.62893087846823    9.03031711867913   11.87187297518998
C        -1.08149660042171    7.97232896283985   10.96669418737961
C         0.04875421936125    7.25154873585508   11.61363286592047
C         1.32832727897389    7.03578529158426   11.19238324030289
C         1.06622304978538    6.19757948063264   13.20244554866040
C         1.35543313399801    5.58556153164361   14.53168038354077
C         0.74373017776260    6.41733826097804   15.61513781754603
C         0.40626027093898    7.30624283969452   17.59423074200254
C        -0.60478697172493    7.66447959908945   16.75080523894995
C        -1.80451740022490    8.51041722692115   17.00869893202942
C        -3.06287907519214    7.83388429827171   16.56329127331248
C        -4.25471268493396    7.74012609581008   17.22477720355603
C        -4.41296402149971    6.74229005697507   15.28939419305054
H        -2.70681151669252   10.12625143307526   14.66681467170588
H        -2.90785090895575   11.78426682751557   12.75692625661166
H        -2.02467780346715   10.80160411904296   10.59549355927953
H         2.91603210868434    6.04742977950627   12.19127140770946
H        -1.88212551968081    7.24996308589798   10.77581943267920
H         2.09838483344269    6.09193494113304   17.20446652241611
H        -0.76427775878094    8.41418133827888   10.02385212003064
H        -6.05459931705009    6.80878934445909   16.60078807255407
H         1.82194166212754    7.28787117520545   10.27789587585381
H         0.92727105963419    4.57440518897335   14.57096417884438
H         2.43315987401860    5.50037456005517   14.68379900207330
H         0.58547315652335    7.54241696128272   18.62178971947296
H        -1.87170001462528    8.74084335284689   18.07149886521696
H        -1.68232953094035    9.44824453173423   16.45912368805183
H        -4.81299817899005    6.20464427994305   14.45322668417563
H        -4.55460574451241    8.10213314399441   18.18596743333789

