72
CSD_code = JUDPAB | q = 0 | S = 0 | Stoichiometry = C33H32NP2ReS3 | MND = 6
Re        3.24993702915990    9.83453171674976    1.26114643468229
S         4.37062998706660   11.64039653305490    0.33932841159652
S         4.49860987251581    7.98697827525006    0.60176916809291
S         1.34068041131693   11.18377223185145    2.41321260201665
P         4.51610104633762    9.78806701080851    3.22150552937909
P         1.87089115928645   10.00187154417628   -0.61335473494294
N         1.76778901350729    8.67147027263058    2.32755791036823
C         1.55323228229998    7.37763223946204    2.54763737150261
H         2.27711510481948    6.69640248781713    2.11749798476629
C         0.46948359510559    6.92786422437937    3.27006754223078
H         0.32843122511221    5.87126358503867    3.42972985980110
C        -0.43228675007883    7.85945163268834    3.78388029596381
H        -1.28853163644968    7.53089341310269    4.35345752811556
C        -0.22271030553729    9.19980209110557    3.55396404796295
H        -0.89032313552539    9.96180154006549    3.92184119532774
C         0.89786586740448    9.57817982861431    2.81587118793489
C         3.41685089830645   12.16275927404417   -1.14531018362641
H         3.55662422354042   13.24167108274302   -1.21470714647169
H         3.88901164760116   11.68234657180839   -2.00503013906452
C         1.94652299227559   11.79023979565002   -1.04605611964918
H         1.41969357106895   11.98502617325441   -1.98615008057051
H         1.48114842718900   12.34964351738429   -0.22753593433457
C         5.53456933045836    7.48612288035799    2.03358197383407
H         4.95673785091068    6.73478173222242    2.57376317520955
H         6.40943522277455    7.00441825777516    1.59548277717518
C         5.93675638608747    8.64617534750614    2.92931165015486
H         6.68719091935019    9.26056258639745    2.41780718640298
H         6.35051936824942    8.28115055228709    3.87415408543896
C         5.29376435076731   11.27979788065211    3.89864373983006
C         6.37541819906987   11.20809301912613    4.77049021350596
H         6.79376248002292   10.24936048900717    5.04239562163550
C         6.91501375557267   12.36849482356656    5.29293477166232
H         7.75897599072399   12.31263023408932    5.96553052789841
C         6.37546472259625   13.60076039225019    4.95902094886268
H         6.80302850274001   14.50370856037055    5.37004932410539
C         5.28993921394727   13.67370907829887    4.10283027468702
H         4.86563858812214   14.63269012809523    3.84479282326955
C         4.74812680687275   12.51645441254468    3.57377623290099
H         3.90423116212566   12.56189633273100    2.89822072929471
C         3.64226721621469    9.16177079680782    4.68666450155000
C         3.64456681237067    7.82532132096704    5.06946486101469
H         4.28237519271016    7.11307414715539    4.56681922982437
C         2.82946355384240    7.39763210489556    6.10227576490762
H         2.83815222304851    6.35726473563994    6.39461020593442
C         1.99864049709027    8.29357655108327    6.75267333942877
H         1.35628864386779    7.95253412315316    7.55122701636310
C         1.99241539929684    9.62731441938705    6.37700673732982
H         1.34539805854733   10.32973628966950    6.88174321411889
C         2.80695273326834   10.06003454505952    5.34918373629855
H         2.79702182906668   11.09783042853394    5.04357630938288
C         2.25453448573874    9.25787430845814   -2.22326589506154
C         1.26792271766007    9.07667831289162   -3.18691663892576
H         0.23851896520441    9.31788611146735   -2.95660402545317
C         1.60820622475422    8.58256990271665   -4.43220566547817
H         0.84200396748646    8.43761900336821   -5.18021113237477
C         2.92839139946561    8.27542452594886   -4.72293860666569
H         3.18800864944925    7.88947289309786   -5.69794040659018
C         3.91235297856645    8.45971213693684   -3.76593711092090
H         4.94060192714474    8.21865956959284   -3.99128318908024
C         3.57782506356917    8.95035213038717   -2.51676067291666
H         4.33363413088865    9.08425058732408   -1.75329695897939
C         0.13299275201903    9.57476517093220   -0.35533330722395
C        -0.12640599503020    8.21003853839086   -0.23087750255974
H         0.67965647254241    7.50750266162703   -0.40852611228448
C        -1.38655096220295    7.77004103352075    0.12043140988544
H        -1.58224923905248    6.71220536066399    0.22042801798749
C        -2.39591160120300    8.69087120908253    0.35695779707984
H        -3.38066667248939    8.34991995055112    0.64135588554188
C        -2.14197276426865   10.04649694556164    0.23577671120271
H        -2.92902853408255   10.76205150448322    0.42493969759107
C        -0.87946130313662   10.49418395452791   -0.11373201543737
H        -0.68318419918396   11.55376297699612   -0.18541398263143

