46
CSD_code = JUDTAF | q = 1 | S = 0 | Stoichiometry = C22H20N3Pd(1+) | MND = 5
Pd        7.46502591391171   -0.29218316721541   17.18095900177398
N         8.03774642762193    0.66658468084829   15.31110571354594
N         9.65696789715542    1.51024600348334   16.72377345453327
N         9.86621848216001    1.01111506899253   18.83297593747596
C         7.40027141102537    0.62878307194821   14.14297840733140
H         6.64341946151014   -0.13645082301443   14.02499310936189
C         7.67720201006445    1.51061315834948   13.11308614437454
H         7.14516390300208    1.43498396271510   12.17972117261341
C         8.62709457375812    2.49897369997371   13.32203513280563
H         8.83752803961791    3.23400972389615   12.56131977689551
C         9.30396861340701    2.53703386786736   14.52815635136350
H        10.01858839309089    3.31532388691202   14.73049599958302
C         9.00697646812978    1.57732003650946   15.49109071818596
C         9.06415010707341    0.86456510684949   17.77947357997456
C        10.88154648693116    2.03965609401670   17.12039497753323
C        10.99784906559072    1.72607136652544   18.48583052518446
C        12.10629421971021    2.09284131492075   19.23329773643565
H        12.18485351314099    1.85176833349373   20.28065160368813
C        13.11492059474811    2.76629111405330   18.57247528390970
H        13.99499512422226    3.07103378058044   19.11549077268266
C        13.02684042785229    3.03907335302754   17.20936667271502
H        13.84791635948931    3.53815488951270   16.71983719859521
C        11.92097945559498    2.68024666113927   16.46020242714098
H        11.90596823629907    2.87123633003046   15.40084840441180
C         6.96561929698110   -1.60823073666852   18.74816719193091
H         7.68411212569761   -2.41001365364101   18.53081712637499
H         6.84856108286622   -1.37741878760139   19.80284058915208
C         5.84587740101787   -1.45270094077034   17.91118741903002
H         4.96296793967301   -0.93389074481716   18.28234766288593
C         5.99283691345452   -1.68318606984100   16.53089990913946
H         6.56987260785402   -2.55182829607030   16.19080646723415
C         4.99001479132357   -1.13171185349309   15.61171619864325
C         4.60394004694848    0.20645954290790   15.77552772509117
H         5.07193968924446    0.80904681850368   16.56498311437891
C         3.67475058571504    0.77465247458480   14.92672114080871
H         3.38060120770461    1.80493440868047   15.05814120952485
C         3.11669002246205    0.01933118008211   13.90504449114416
H         2.38352093690387    0.46129814545537   13.24892043805752
C         3.50487982426896   -1.29816268716770   13.72418207561000
H         3.07534957845252   -1.88274141256613   12.92552204388536
C         4.44195853958693   -1.87188290730572   14.56578523743541
H         4.74172054709740   -2.90013038073563   14.42457540136077
C         9.60192311529034    0.52368416739890   20.15969864392016
H         8.58736036447948    0.12316372515893   20.18567721399522
H         9.69012085312676    1.33863831220178   20.87910164262560
H        10.31209734468124   -0.26150181979929   20.42447695559784

