63
CSD_code = JUDZOZ | q = 0 | S = 0 | Stoichiometry = C30H26F2N2O2Pd | MND = 4
Pd       -1.56452474106654   21.92560029130672    7.65985249726536
F         3.25924658761487   17.65833552998732    9.62640752836591
O        -0.09927646442658   22.64358891237571    6.43115863960127
N        -1.56314837416995   20.26122061792817    6.53274059236478
C         0.21124217278174   17.40265265168103    7.71161668154934
H        -0.30935255899148   16.67702366138444    7.10290342083836
C         1.42301709282776   17.05538382385425    8.28328686828336
H         1.85970364504733   16.08183050483164    8.12640775904357
C         2.07626673097006   17.98685197771924    9.06724631406142
C         1.54733421702674   19.24488592394808    9.29796332962772
H         2.08194762994617   19.94485432167561    9.92008407211675
C         0.33331191570099   19.57559013237233    8.72501098791279
H        -0.09014094203974   20.57307367545767    8.91444716345944
C        -0.34463113117973   18.65867478039007    7.92242416440545
C        -1.67093759717904   19.02690925545617    7.29568267849910
H        -2.03762224033791   18.20107667396262    6.67680173110123
H        -2.40434350810148   19.21686029424432    8.09037497100938
C        -1.25811203395435   20.25828850403377    5.28317265967274
C        -1.08428165280996   21.50667154286565    4.55514916171092
C        -0.47328284803763   22.63131082131811    5.19364526671011
C        -0.20554092070873   23.76011681520792    4.38131991463625
H         0.29875876512630   24.59543247932436    4.84582204667920
C        -0.58305598851670   23.81497917495323    3.06447489326380
H        -0.38262157881227   24.70530876790979    2.48595794832392
C        -1.23283913044618   22.73557781780215    2.47167844566377
H        -1.55259180385312   22.78912126077837    1.44256085730316
C        -1.45219995507852   21.59529645381859    3.20895527030478
H        -1.95913477464096   20.75942864588398    2.74776320002725
C        -1.01700459866669   18.97914147587203    4.52519012765277
H        -0.61003179537440   19.18638702949725    3.54114444630749
H        -1.94475462129348   18.41742711432980    4.41265148324899
H        -0.30280966778505   18.36297908934290    5.06926572211143
F        -6.40181585889188   26.17395447978352    5.69943425038944
O        -3.02798891366479   21.20818627270728    8.89226639809952
N        -1.56537552999146   23.58956843345985    8.78740098685943
C        -3.35708378893544   26.43899219094931    7.61800815782023
H        -2.84166839530717   27.16471989608710    8.23097392990214
C        -4.57067160946848   26.78148517708621    7.04734180944183
H        -5.01369365177077   27.75140482498642    7.20895802098190
C        -5.21733758300552   25.84997002952490    6.25801142088724
C        -4.68018717684477   24.59657166422392    6.02102124705985
H        -5.20989372244088   23.89653797235327    5.39479482550769
C        -3.46433458649272   24.27072245617580    6.59286012835389
H        -3.03376460817712   23.27734586770007    6.39790738186163
C        -2.79291620505252   25.18779738579312    7.40073064247165
C        -1.46426870467116   24.82507416120594    8.02568003400448
H        -1.10081128827984   25.65199334633483    8.64500262451866
H        -0.73103466010197   24.63916057592865    7.22982469540096
C        -1.86225745538483   23.58887497393198   10.03873322100905
C        -2.02652392293625   22.33729471941234   10.76388529137161
C        -2.64093618101745   21.21410907352358   10.12603634552510
C        -2.89523586027281   20.08002750655929   10.93514847304368
H        -3.40162636081646   19.24507996845417   10.47225985470028
C        -2.50261055868467   20.01973769196672   12.24744617025166
H        -2.69295012586942   19.12547831060255   12.82327860389790
C        -1.85122079129417   21.09862630530238   12.83911387926552
H        -1.52016051387108   21.04091936009264   13.86443015528645
C        -1.64440655123699   22.24375321716848   12.10558231464425
H        -1.13615478598761   23.07946317637873   12.56560749751159
C        -2.10283155621074   24.86474530395494   10.80222393864664
H        -2.50200190736411   24.65262454489024   11.78846112738250
H        -1.17649131022797   25.42968560635414   10.91007533964389
H        -2.82323566528998   25.47981548558663   10.26514039113644

