32
CSD_code = JUFCUI | q = 0 | S = 0 | Stoichiometry = C16H8Cl3MoNO3 | MND = 7
Mo        7.95063034742806    1.82631754044538    4.53415948214269
Cl       10.28644234066366    2.89334392569904    4.27194103855515
Cl        7.96664453027745    3.39786692067323    6.34514915090715
Cl        4.89668705926225    2.72419526343782   -0.10305096394790
O         8.73747539879843   -0.55508466876855    6.34680452321859
O         9.27687221447547   -0.03109641777920    2.42681039879193
O         5.07087820171744    0.92054801688471    5.19040256392615
N         7.70955722985288    3.31712886347526    3.15556349045358
C         8.44176187749157    0.36750074796460    5.74503701733856
C         8.54532685739139    0.60625176854546    3.09619378124884
C         6.13011686213487    1.27844143264605    4.95264017766798
C         6.97447315623906    0.78387705112099    2.76341847687682
C         6.39528639268486   -0.49979530420035    2.65755217161919
C         5.40830441683798   -0.76738249318488    1.74092208782507
C         4.95639711876006    0.22660551303440    0.86839015858266
C         5.48921280105958    1.49079054888857    0.94670846245427
C         6.47866332165754    1.81343076520367    1.89805877610994
C         7.00581580994045    3.11285171409466    2.07680223787262
C         8.38209621448036    4.51685508530312    3.35324974356062
C         7.85096496173179    5.76969672937081    3.04889306979614
C         8.57188379814169    6.91574154523817    3.32840593662473
C         9.83437468839221    6.83304772709723    3.89336515591129
C        10.38596253231816    5.59752008493934    4.19345922882083
C         9.65522289375591    4.45482498952087    3.93277375049845
H         6.76558177766849   -1.28449429792728    3.30495042943027
H         4.97302470286062   -1.75281838564758    1.68698605935890
H         4.18557596309274    0.00890313039034    0.14648324258873
H         6.88682620361839    3.87850937219111    1.31433371307895
H         6.85387164216171    5.83676766063037    2.63938317966049
H         8.14079891220837    7.88020746735288    3.10886458390529
H        10.39035133351798    7.73119702214870    4.11087935742002
H        11.36471843937432    5.51925068120754    4.63936951770166

