48
CSD_code = JUFKUQ | q = 1 | S = 0 | Stoichiometry = C15H23N4O3PdS2(1+) | MND = 4
Pd        3.03598959530791    0.00092491607914    3.72133979113783
S         6.17407393657410   -3.84843459974662    4.83423637731447
S         0.22714250041747    4.21312442754240    4.55678539526742
N         4.60564646051029   -1.38658396816503    3.46123388552617
N         1.52040660702116    1.46551450088701    3.44446856381638
N         3.00576632783906   -0.03547125344083    1.83262958041167
C         4.92227066274062   -3.90031439847338    3.50979045592630
H         5.43405044069356   -3.95992099013637    2.54878078903178
H         4.36481553910703   -4.82279005158916    3.65951898405240
C         3.96698180606402   -2.71453685387387    3.61047414339988
H         3.18273801909577   -2.80797751864673    2.84528954314533
H         3.48785926473518   -2.75461375487243    4.59648400156586
C         6.79396871558229   -2.18575952569585    4.41760888928775
H         7.53865882834198   -1.94495271831128    5.17325477823323
H         7.27983200601013   -2.22069428920577    3.44234572576514
C         5.65790141822175   -1.17022330134889    4.47217702410180
H         5.18977442621228   -1.22800558143736    5.46173002354547
H         6.05218124869380   -0.15325622146732    4.34391124129793
C         5.09321933964444   -1.16813408278681    2.07579910532436
H         5.52930053526976   -2.07953977891289    1.65371017282112
H         5.88088283769896   -0.40367861819713    2.10257934596882
C         3.98972958313185   -0.65751872978411    1.18341343485254
C         3.96385509685494   -0.74465861228910   -0.20082093580165
H         4.75025402523391   -1.25343883863719   -0.73391468689496
C         2.90695164665963   -0.15598050028528   -0.88325551606051
H         2.86748837195614   -0.20408482774912   -1.95967430956696
C         1.90084174016175    0.49466446510342   -0.18048558029291
H         1.07565225066540    0.95588657785650   -0.69795810077840
C         1.97493412302972    0.52954550809653    1.20429755916936
C         0.93805934266403    1.12407030503034    2.12366451672035
H         0.16498910552859    0.36081325962540    2.28689759751609
H         0.46176107807430    1.98997269851680    1.65130688114041
C         2.28264488370844    2.73561929179934    3.41681873418476
H         3.02996186133340    2.67938302533856    2.61156196172595
H         2.80286195561365    2.82446695604791    4.38168505152102
C         1.43296081608729    3.98851696949425    3.20817441030377
H         0.89768056178699    3.97950365473398    2.25827719338925
H         2.07526820426965    4.86669787041050    3.23126134366049
C         0.50445466624238    1.48010305318805    4.51297381590402
H         1.02696824652214    1.64255023805819    5.46280462877694
H         0.02055589367711    0.49596585343489    4.54029409446151
C        -0.54642831449203    2.57392458993020    4.36973262623625
H        -1.27121953774389    2.49030570049983    5.17688284059631
H        -1.07508357597965    2.53277372502212    3.41775134182071
N         2.15460462593891   -0.77565773169689    6.14928880931213
O         3.06455829927972    0.04518684765106    5.77725847191281
O         1.93956253689998   -0.94179110736014    7.30713168574153
O         1.54497199712912   -1.35209658023756    5.23888431350931

