50
CSD_code = JUFKAW | q = 0 | S = 0 | Stoichiometry = C18H28RuS3 | MND = 9
Ru        3.02226671534780   -0.17040685792633   10.43104230394344
S         2.11113895491171    2.03808397624074   10.44161382138012
S         4.01796000422819    0.47546557558749   12.48810235127207
S         1.14086838613404   -0.96129436275009   11.72638330417160
C         4.65502611966585   -1.70251701009511    9.83603724742634
C         3.45261350731322   -2.32429821478537    9.45106363259571
C         2.44890795905685   -1.56274905552374    8.76991638089591
C         2.78037811525132   -0.30011306920340    8.21565489048302
C         4.07191496996356    0.27181292221365    8.47129931833787
C         4.96357184425459   -0.37589597783104    9.35943713045045
C         5.64343642792897   -2.50153513244962   10.65005332058307
C         3.22289496906187   -3.78930553328757    9.70751793997834
C         1.08524106501622   -2.16419839359765    8.55367616701098
C         1.84432707874235    0.42282550063271    7.28625293301297
C         4.38924524766690    1.58008444701233    7.80294472878503
C         6.26108054864594    0.30666625020922    9.72998972002840
C         1.96373303265821    2.30520014457464   12.22889446115928
C         3.31777813436170    2.13298706351301   12.88281732221163
C         5.76205098478219    0.95188957134495   12.15679016459870
C         6.04018871035825    1.44364798219082   10.74279326364091
C         1.97290935258640   -2.25617811494619   12.52955084467377
C         1.42391291371175   -3.43384925946534   12.81039259193579
H         5.12122528876934   -3.17279444687207   11.32782589249306
H         6.27797974401922   -3.09822476322444    9.99066995469965
H         6.28528123807043   -1.87099062498216   11.25744081424215
H         4.16497237457421   -4.33195391515377    9.71216720065152
H         2.72301213150370   -3.95472314179345   10.66471027003600
H         2.59926628570008   -4.21039991701400    8.92249008907497
H         1.01816887966534   -2.64241391746718    7.57455376833635
H         0.86555733252481   -2.89870982515137    9.32340922065312
H         0.32124965742805   -1.39298797204524    8.62755012377535
H         1.56144971287324    1.38466320666967    7.71551141082101
H         2.33515683098527    0.60673731373533    6.33060508574931
H         0.94162390771086   -0.14676207472504    7.09669923028122
H         4.25497456532959    1.48889292677651    6.72551109058100
H         3.70056156541244    2.34656177675916    8.16317788762844
H         5.40232605329923    1.91912684951402    7.98826472546663
H         6.71927369298656    0.72291196604825    8.82995198976448
H         6.98087139089143   -0.40205915524926   10.13829427114396
H         1.23896128507312    1.58703139026487   12.62024876279041
H         1.59743185193150    3.32256616776269   12.37472832696972
H         4.01812551867865    2.87557827503095   12.50208022914788
H         3.25462102923785    2.18669716185353   13.97080052062508
H         6.35268271777342    0.06824071665572   12.39857268523688
H         5.98788197177472    1.72322442988421   12.89230044855174
H         5.20449563124840    2.06957777499069   10.41312498042251
H         6.93922031849953    2.06512303113172   10.77124833511677
H         2.99288620682714   -2.02479685278710   12.82509833793870
H         1.96311880632621   -4.19096378649161   13.35570359238864
H         0.40707896924859   -3.65447504577159   12.53513691684158

