52
CSD_code = JUFLEB | q = 0 | S = 0 | Stoichiometry = C15H23N5NiO6S2 | MND = 6
Ni        0.30259810328935   11.79400434497925   10.64700340622156
S         0.42985228889345    6.49546608698159   12.42385914084498
S         1.71181038342812   16.01662273650500    8.67610438989053
N         0.38858234906762    9.71071286573957   12.02767401731521
N        -0.33081392584636   14.17868303415078   10.33691081221437
N        -0.64366365301200   12.23916164841538   12.32009119173478
C         1.79720769725417    7.68951054281601   12.57218682308822
H         1.90660715131131    7.95586288585063   13.62484161272272
H         2.69079113315122    7.15981982725110   12.24833352241347
C         1.56992855884991    8.91146964726153   11.68881210331842
H         2.45616050076511    9.54880703299771   11.75832158098617
H         1.45208781052898    8.59079001857945   10.65016840254877
C        -0.90093826612078    7.67576119247338   12.81956400143543
H        -1.83425275885261    7.14438375418664   12.64430292033816
H        -0.83586677176091    7.92360815653644   13.87987798251845
C        -0.83017876136241    8.90025893665045   11.91199905224933
H        -0.88882078647217    8.55007453217156   10.87962070067440
H        -1.69050007422894    9.54761554051962   12.11220755678096
C         0.48931198600011   10.35143775724366   13.33669023609322
H         1.50403561792263   10.75139334618723   13.43976885033808
H         0.30326693472442    9.67161871813169   14.17806859226429
C        -0.45870345207248   11.51638228698608   13.42366005137294
C        -1.09126782832583   11.84088076194159   14.61720846937936
H        -0.92932669436188   11.23462979958283   15.49442513143859
C        -1.92135943558780   12.94690606470407   14.66147394314805
H        -2.42462113586056   13.22059136115792   15.57598055580935
C        -2.08822994612852   13.69864622354693   13.51172719661608
H        -2.71966529237315   14.57270183473072   13.50783744579376
C        -1.43112697155012   13.31488757605873   12.34941564048585
C        -1.59679655635305   14.07775382796583   11.06794915501457
H        -2.29958855710130   13.51370298489885   10.44703794943545
H        -2.02510091903974   15.07172988930294   11.27233559146656
C         0.50214894241068   15.18674144185833   11.00410394587087
H         0.64251672168455   14.87410448615103   12.04403214301876
H        -0.01034997290903   16.16442754636643   10.99728198703203
C         1.86760659691512   15.35928237152479   10.36181004105951
H         2.40998864747817   14.41707110657180   10.31199460972611
H         2.45887905520912   16.07918868449732   10.92509672725723
C        -0.62062252443264   14.59197105122680    8.95719314594126
H        -1.12862773019335   15.57070357573114    8.95391045879682
H        -1.28748017136147   13.84399383836136    8.52133082098778
C         0.62622098108235   14.68002351023904    8.09679849894942
H         0.35984304554040   14.92030224524956    7.06954462547656
H         1.18392044489734   13.74389830998358    8.11753353835817
N         2.43879608383708   11.79368998002152   10.19234217850232
O         1.64816294997149   11.88433701669535    9.24849920562357
O         1.94837635116016   12.03591301339091   11.32809696736799
O         3.59657810340583   11.53235968664156   10.06514287605655
N        -1.05448615438388   10.50990775351515    8.97038140153650
O        -1.26808759102328   11.53018358775995    9.71367277779616
O        -0.02791186440760    9.88862381942770    9.19308373604207
O        -1.87029064365357   10.21400175828252    8.14499228865092

