59
CSD_code = JUFMUU | q = 0 | S = 0 | Stoichiometry = C16H33ClO6P2Ru | MND = 8
Ru        3.72397647225327    9.82800587859942    3.42606205117871
Cl        4.18745231818508   10.54397318786625    5.67792471689724
C         2.70063579455105    7.40054610788575    2.47612743460752
C         3.04459517212678    8.64772642388946    1.68164297931143
H         3.54778050779821    8.50399791498366    0.72743325125464
C         2.21175561774193    9.76698184791679    1.82805891794452
C         1.54441549794057    9.94745453491274    3.08558549875687
H         0.81008258390557   10.74141299520815    3.19367548353483
C         1.75884136310474    9.02043921609783    4.13285104099425
C         2.66379244993860    7.96023254837832    3.89013280400248
H         2.79874346126159    7.23956892259772    4.69592892818897
C         1.34278498080840    6.81172231320454    2.05058236789961
H         0.55369528749301    7.55577208970737    2.14402334914247
H         1.08957094631181    5.95936278651707    2.67848402356681
H         1.38433831476471    6.47951751436191    1.01478356731232
C         3.77117897440061    6.32252320858297    2.33036987424589
H         4.74276768015464    6.71159303599713    2.62129408626312
H         3.83051521180317    5.98701427748524    1.29668740562523
H         3.53097688914768    5.46552547854679    2.95756592028454
C         1.97054978244524   10.74437624240420    0.71452353645947
H         0.99656317545623   10.53109347983034    0.26823002330377
H         2.72873995488973   10.64680606407184   -0.05971638614734
H         1.96371747632946   11.77325520706298    1.07067552095069
C         1.12809807432678    9.22305556058444    5.48091626331394
H         0.59222058062619    8.32161497390131    5.77818399047756
H         0.43340895175752   10.06133911489928    5.46699571076576
H         1.89489673283308    9.42607657898719    6.23108878068442
P         4.28814855417514   11.94535952498661    2.82273237798215
O         5.54267856158133   12.54411758360744    3.66095702603722
O         4.62246130598665   12.36485254474370    1.30053857949365
O         3.16453650903209   13.09814175699107    2.93751126039017
C         5.98539721385577   13.87904893854249    3.45349235740899
H         7.03259590488851   13.85312934195324    3.14706308379992
H         5.89547690351558   14.42596999516165    4.39374221525530
H         5.39010818663444   14.37359822857489    2.68239215553794
C         5.58371572530752   11.60577975240335    0.59157812528569
H         5.46897250808228   11.85996495323657   -0.46243484508108
H         5.42573002456016   10.53420932149634    0.74261811280683
H         6.59501755287185   11.85464227545179    0.92201934257341
C         2.46422180916500   13.25980833906621    4.16224721975571
H         1.41389749585104   13.43531311643786    3.92479734289511
H         2.86155594502734   14.12139867613963    4.70176160677896
H         2.55754324480801   12.37594675616934    4.79939158407783
P         5.87406079335575    9.09863642217162    3.40128010499828
O         6.35857498819337    7.85590987835356    4.33328419843937
O         6.28029925823216    8.56823678507289    1.94537578190904
O         7.13966737305661   10.08759272256628    3.61223140951362
C         5.68261399884936    7.41478946126028    5.49998846525314
H         6.42408275292321    7.30232310330554    6.29265988821376
H         5.21624305918827    6.44816194514066    5.29912522509619
H         4.92484865862492    8.13496673033038    5.81653568606453
C         7.56460016680079    8.00886842480824    1.68357434534585
H         7.53077797732716    7.63457578732000    0.66107797881250
H         7.77385539316632    7.19125508875876    2.37322247358399
H         8.33919464987611    8.76913818515923    1.77806112777511
C         7.48782371506270   10.59639951925924    4.89267402285478
H         8.35383411774949   11.23979269645026    4.74020012225672
H         7.74875895989150    9.77895058638503    5.56805474881134
H         6.66671244000620   11.17233405421501    5.31943573525742

