52
CSD_code = JUFNON | q = 0 | S = 0 | Stoichiometry = C21H26ClNP2Pt | MND = 4
Pt        3.82279051145040    0.28759806346437    3.79163864249511
P         4.07518377795122    1.71958884615224    2.04638499793653
P         3.68398933055514   -1.47634483721007    5.22268841668075
Cl        5.27291263231516   -1.14655538190396    2.49796803038826
N         1.33945305537753    1.48407081309241    4.12221424929201
C         2.50222640630867    1.42108415846962    4.76205536454447
C         0.33219728834093    2.16656992255455    4.64398783511321
C         0.42833960828980    2.84797442717641    5.84385650768874
C         1.63935743196742    2.80186076537382    6.52217813504267
C         2.68598522302719    2.07777033578457    5.98249677354402
C         5.24445751919456   -2.27646111898807    5.72922055029009
C         2.75801572967634   -1.41657211178416    6.80903921463962
C         2.76443191157736   -2.73899809796619    4.29532294156358
C         2.05060851814391   -2.29209170048392    3.18801740628369
C         1.33621435338481   -3.18358636247326    2.41077628040818
C         1.32526321994557   -4.52910782422955    2.74120745569119
C         2.02520402933212   -4.97778743628391    3.84951996258204
C         2.74444291041330   -4.08765416575301    4.62708509843691
C         5.76604025114838    2.09069995391229    1.47212557095244
C         3.30008980835129    3.38379230225700    2.02070384546092
C         3.23530625562038    0.89879151583988    0.66353594154238
C         3.86613711036114    0.47693690385217   -0.49830828321859
C         3.14620234006083   -0.20725262840489   -1.46318705740508
C         1.80218062781781   -0.47799557624798   -1.27281690024631
C         1.17185906637138   -0.06847548768125   -0.10805313861389
C         1.88473822837842    0.61343852887375    0.85936794478162
H        -0.58841954993641    2.16925959168087    4.07078421070456
H        -0.41229642948572    3.39950705933083    6.23678843270504
H         1.75831547087544    3.32426553248949    7.46223500055240
H         3.63884125630055    2.02062864054313    6.49261878999649
H         5.80832959195101   -2.51748657827815    4.82968990149642
H         5.05634568206079   -3.17692339453419    6.31257180723419
H         5.81968826271066   -1.56970381265319    6.32732825138187
H         1.76088302041517   -1.02140457251718    6.62450702848420
H         3.27284002988919   -0.75607891673445    7.50433640791608
H         2.67984237548515   -2.41340738319226    7.24112591672219
H         2.07903932479163   -1.23097620973093    2.93789877826404
H         0.79792317748918   -2.83138262955210    1.54327748589556
H         0.77475628773488   -5.23179633543517    2.13273948245996
H         2.01601341303263   -6.02784604480735    4.10467642552087
H         3.29397452065366   -4.44907053955642    5.48506667095560
H         6.31220758994635    1.15509382781263    1.36559305685659
H         6.26024122992254    2.70089403141041    2.22819795918745
H         5.74045545990108    2.63237327045050    0.52634714173890
H         2.24465107843253    3.29516156970209    2.26600920924866
H         3.41013137393107    3.83593712141586    1.03561158022228
H         3.78023908705481    4.01221211850086    2.76898236148367
H         4.91915798884547    0.66143927709419   -0.64720068347751
H         3.64074870539633   -0.53840147317774   -2.36503893972784
H         1.24826145660054   -1.01710043368567   -2.02785675105734
H         0.12493770535616   -0.28789178057474    0.04694527807038
H         1.41116474527900    0.92380425647578    1.78373941119142

