99
CSD_code = JUFNAB | q = 1 | S = 0 | Stoichiometry = C51H41CuN3OP2(1+) | MND = 4
Cu        3.92994147054701    9.18138773520906   10.29869923995265
O         4.48486213053170    8.33605589212887   13.09730113147350
N         4.17337123940935    9.66340821779586    8.28195614036884
P         5.11013473256256    7.21007500005939   10.74436557179975
N         5.09715577911150   10.09589390521263    7.43277161950529
P         4.19530707531757   10.73009418796376   11.94445761732449
N         2.11794845754079    8.49614656775129    9.57646610359986
C         3.59954922198464    9.05770000386732    6.20503840066010
H         3.06891254931333    8.63967390083076    5.37596592601663
C         3.67920225814506   12.45780654112903   11.69662766148600
C         6.20309783737120    7.10014891008169   12.19903665628224
C         1.89730760500507   13.89333733252526   10.95090545239010
H         0.89448796252387   14.02168472792197   10.57181521729830
C         2.60284329378648    9.46376583013647   16.04934618551772
H         2.26899971075742    9.12082691934280   17.01627101879705
C         7.77819730261131    6.89931642448247    7.70462313694394
H         8.37948433226276    7.59074533886075    7.13274415054393
C         7.08570769633816    4.65430945931887    8.19238839786521
H         7.14514126957357    3.59429090976104    7.99605764833624
C         6.17077318233121    6.48502240566660    9.44929087701411
C         6.18982053580986   10.86846532835986    7.86075813140669
C         1.11284919489137    7.98421219862005   10.27464329824299
C         7.46387277262231    6.52924488306875   12.24695056793093
H         7.85873473432912    6.02000179988786   11.38026810232668
C         2.38957300722814   12.62579402003492   11.19501766452945
H         1.78476620482479   11.74751393979022   11.00138313254894
C         6.24965334476128    5.12005355037967    9.19124985734714
H         5.66127204924438    4.42478593095993    9.77292714931347
C         5.94021604309229   10.82140202513030   12.46852003585297
C         0.02364782511047    7.38823113171058    9.64299652570853
H        -0.77995643965181    6.98097120116533   10.23534108596524
C         1.04861545329057    7.85704254074729    7.54049613757077
H         1.05856942837934    7.82551322935869    6.46375823371415
C         7.09830897278498   12.50279472362266    9.35895365530495
H         6.96953222742876   13.18314874292923   10.18589007648124
C         8.48091808331025   11.53618166128885    7.65231536350949
H         9.43530693880607   11.45722403090881    7.15524397501315
C         3.11782722097158    5.50784452290623    9.93891489256623
H         3.31855701217156    5.94675673333588    8.96918490590231
C         4.48381357358142   13.56840696228091   11.91830446489693
H         5.49041656060212   13.44327466673391   12.29096515222864
C         3.80579455522429    9.08717638230212   14.03004182934351
C         6.89896068933852   10.21320850773790   11.66783931562591
H         6.58521235168595    9.74491294541843   10.74306537174906
C         3.24712591495325    9.02558474254961    7.56780550163138
C         2.66604283922624   11.18171699510190   14.36347785365984
H         2.38734962355229   12.16590665833126   14.01589492103577
C         3.98819122375720   14.83584742366531   11.66463133868159
H         4.61172566739420   15.69949329502227   11.84135209615936
C         3.38062624963012    8.62669797628463   15.26165975227935
H         3.64106698172019    7.63377054772088   15.59615860864988
C         6.93940604800390    7.36932191395733    8.69784646716940
H         6.88122363993250    8.43019419864044    8.90476215837155
C        -0.00641550535709    7.32367035858239    8.26135944650989
H        -0.83902055427730    6.86371842536609    7.75142249640101
C         3.46411530944371   10.36635500559588   13.57804075199846
C         6.02829461341394   11.73786201314184    8.93338433002769
H         5.06438352987342   11.81087618627975    9.41747054934526
C         7.41790409399422   10.76694080838855    7.21577611701629
H         7.54142669178539   10.08369201914588    6.38955106739115
C         7.84893229668155    5.53980847723723    7.44808173445038
H         8.49955357599288    5.16949668550922    6.67060410876413
C         6.45944229235192    7.88078504210949   14.47874616271831
H         6.08374303180301    8.42769672467461   15.33032365564535
C         8.21118276778076    6.61702961182499   13.41079565803730
H         9.18935693099002    6.16413670139785   13.45334124941509
C         5.70970245712420    7.77593137849125   13.32277341448157
C         2.24388426458232   10.72452921924831   15.60262052071077
H         1.63206701601190   11.35920185030519   16.22491233472889
C         2.69813606744645   15.00032921554774   11.18770941221532
H         2.31751119841239   15.99161125095224   10.99499194316451
C         3.89877005698243    5.88281143485873   11.03160202228266
C         1.18280097480726    8.07176407857681   11.76191882506014
H         2.19336086058387    8.33008741858505   12.06764524446939
H         0.89965212812737    7.12359242002868   12.21304288626095
H         0.49913719192488    8.83808671765989   12.12662071844351
C         2.63865016649694    4.38303105197040   12.41999868120904
H         2.45440324650915    3.93877148836457   13.38694713720185
C         8.60161021234127   10.78029354070950   13.25090940475409
H         9.63545360433553   10.76284443796394   13.55986835350572
C         2.11082394209714    4.57498033721688   10.08714665374736
H         1.51572532531264    4.28345444772397    9.23427502719367
C         2.10168011284517    8.44112249484270    8.23737719673728
C         4.78658535269113    9.74509023461713    6.16462146754027
H         5.39789616499491   10.02419830674948    5.33127513705219
C         3.65152373466008    5.31562579150089   12.27551563134300
H         4.25630143983562    5.58954228042137   13.12769689976173
C         7.64973724064563   11.38416049138986   14.05769352226890
H         7.94374647614702   11.83737656101048   14.99261878343470
C         1.86582752934999    4.01462125526396   11.33160936125447
H         1.07779639063736    3.28662634768608   11.45003402311808
C         8.22572755481719   10.19311521147782   12.05450212555690
H         8.96236576460793    9.71316784999573   11.42807678421063
C         8.32415877025790   12.40290117033799    8.72217697930432
H         9.15685187979941   13.00157101172806    9.05636937282570
C         6.32097342421207   11.40300583860894   13.67498119398111
H         5.57731027304006   11.86129134799189   14.31330138187173
C         7.71379426551708    7.29025890663985   14.51296758997160
H         8.30657020333315    7.36595093229982   15.41125686671093

