102
CSD_code = JUFNEF | q = 1 | S = 0 | Stoichiometry = C52H43CuN3OP2(1+) | MND = 4
Cu        7.23662610218780    3.58091341676698    5.29894164395598
P         6.61704969906794    5.39069703635170    6.54881600174488
O         6.19165268490414    5.99276633801166    3.96540108521286
N         7.24748354054006    1.63529062729684    6.07173704700497
P         6.17155614281080    3.45384254941645    3.17260638407375
C         7.33654954489491    3.87140958346822    1.83453118969010
N         6.43149193718431    0.77547839596387    6.66425365836915
C         4.79621290365172    5.44203109101313    6.49232284102926
N         9.10690171975689    2.95912454536255    4.67549731997772
C         7.01204904443896    5.64470159459732    8.30818831767116
C         9.83189505022190    5.17309977419199    4.04315241328190
H         8.91000355334188    5.43448477380570    4.56060821214012
H         9.77076760275434    5.52270674599588    3.01379049841021
H        10.67014109413788    5.67772824243509    4.52057715726512
C         6.61785807726518    7.17044319893185    4.53268090511651
C         4.76938779448366    4.57146612538242    2.85383319242616
C         4.12552429041674    4.29518279683000    6.08690592081583
H         4.70352950960731    3.40738818138847    5.86038256832002
C         5.49228275768031    1.86893353656844    2.57201520959061
C         4.07461959306391    6.59829774883805    6.77517931955925
H         4.59267523574099    7.49605332733227    7.08525576031508
C         2.69720748775674    6.59444074281032    6.65366045598942
H         2.13772241058510    7.49142836673880    6.87323048082276
C         5.51836986646753    1.46640639658411    1.24050494049781
H         5.95597936345938    2.10768863018726    0.48885635500381
C         8.17559363956823    0.92478761805020    5.43130186334617
C         9.23082033322047    1.62504870540079    4.72325178500369
C         2.77374001407486    6.48380063933563    2.69837150554069
H         1.99327577406686    7.22616593213387    2.63675242416671
C         3.55281156475967    4.24916694508567    2.27686707642374
H         3.38272466100739    3.25343839334684    1.89491747623465
C         7.33379330075398    5.08292693078803    1.15394704917806
H         6.56146562963742    5.81301753605833    1.34470006253191
C         2.56092525767300    5.21341662721114    2.19198094724608
H         1.61588543830805    4.96908902027120    1.73267833361864
C         7.80543925587327    5.95812233313855   10.94744106776434
H         8.11122155262179    6.08462772771749   11.97472307391318
C         4.37256256239469   -0.18070241870464    3.16126988728816
H         3.92352072014594   -0.82339829646205    3.90472887755193
C         3.97973877147772    6.81871504943274    3.29576840821576
H         4.13492371359567    7.80263378121652    3.71214848227891
C         5.66207982487863    2.04471605171539    8.58343075691182
C         2.03436762657435    5.44728575492825    6.24573108969059
H         0.95991925010579    5.45442913584278    6.14510623783546
C         4.07171701027715    0.83700166115940    7.20169602125367
H         3.88140268433797    0.17337466432412    6.37132376586830
C         4.97117582576846    5.85882482695386    3.36557604184263
C         8.76142324380210    5.85845175911646    9.94773354086712
H         9.81103318507336    5.90539800460872   10.19616284061862
C         6.97083664137978    7.05570382439338    5.88076205730070
C         2.74899568676987    4.29523002067476    5.96405674493066
H         2.23601125398751    3.40196453182473    5.64143238399084
C         6.78789262645271    8.35782572930552    3.84524093842413
H         6.51777162913420    8.42986411983509    2.80236276691992
C        11.14536107143452    3.10697955753519    3.47823325601346
H        11.88261228258241    3.72763312632997    2.99470745391074
C         6.05767055688259    5.72900873332606    9.31358606771343
H         5.00685149824851    5.66865512076939    9.06958871422913
C         7.51985975572919    8.14573570799338    6.53772945936283
H         7.80343352603949    8.06850994679242    7.57697487594823
C         6.45913620234284    5.88968698587027   10.62914293459274
H         5.71674936267173    5.96294605355292   11.41023114558708
C         7.31956722379447    9.44620366429478    4.52116661234072
H         7.45302011457073   10.38092321226693    3.99921673920373
C         3.29151701126598    2.15776124042653    9.03704393534957
H         2.47993801069857    2.53422556221788    9.64003278133209
C         4.41143127518408   -0.58165917243684    1.83594239466941
H         3.99730429241402   -1.53573085410218    1.54771442063622
C         8.36682115180099    5.69427657706933    8.63403036584896
H         9.10261701548360    5.60312500516864    7.84408647137821
C         8.31088957092055    5.34984248497476    0.21031345014720
H         8.29950571181332    6.29062374028134   -0.31989769610817
C         4.91085078103405    1.03936675826492    3.52527316866581
H         4.87904634672449    1.37277727245871    4.55350030372904
C        10.02892963084054    3.69418795492490    4.07091378218151
C         9.29988041719111    3.20188365854902    0.60889502097773
H        10.05881388640764    2.46475932193284    0.39217531554083
C         9.29614773591370    4.41536234167383   -0.06126942191893
H        10.05438239049480    4.62766866524007   -0.79937549282336
C         7.07677108409099    2.36429162408313    8.94907641607379
H         7.56282978610561    2.93310122354745    8.15591894103350
H         7.64498426520016    1.44564420778001    9.09611606052953
H         7.11288510549694    2.94540327507098    9.86584632922290
C         7.68540670380920    9.33946413902007    5.85266584795522
H         8.10108245320300   10.19365081540751    6.36437262819040
C         8.33033767492087    2.93396826031097    1.55522841760498
H         8.32551136602976    1.98394135084477    2.07489197196426
C         7.92803314163713   -0.44675154644753    5.62170229874503
H         8.48321290306093   -1.27694285428594    5.23926494148378
C        11.28497107143022    1.73127641813984    3.51517464281359
H        12.13949050201825    1.25453209049984    3.05967123319309
C         4.97868055261277    0.24500246721335    0.87920652801386
H         4.99905329582293   -0.06311566007675   -0.15540083436337
C         5.37356458826580    1.22259265289579    7.49076760268052
C         4.59542108675004    2.50798896272654    9.34111982036814
H         4.79713743364707    3.14173585488052   10.19124280772212
C         6.80266964857347   -0.49563613887852    6.40998568861336
H         6.26397068639525   -1.32905560961361    6.81316046545561
C         3.02779481448562    1.30765648860904    7.97698336695860
H         2.01518083351911    1.01095699044323    7.75360212527313
C        10.31414120583725    0.97084160925985    4.14684571907882
H        10.39342729026515   -0.10242966153445    4.19800853775736

