48
CSD_code = JUFQEG | q = 0 | S = 0 | Stoichiometry = C23H21FeO2P | MND = 7
Fe       -0.31137466667241   14.91326499662654   11.31234134791374
P        -0.70386358401637   13.32628799767798    9.91315525286606
O        -0.01303696661280   16.72829936038980   13.54522453723378
O        -1.51048022848693   13.52231066169716   13.55623651118488
C        -0.09497659906349   16.06225115596192   12.60799876233388
C        -1.03510406531173   14.01748395754048   12.63238976006701
C        -1.74495348291802   13.84069498056009    8.45194774585396
H        -1.85308589550989   12.98941225862461    7.77022576016104
C        -1.14825806800827   15.01437342939021    7.75264369564571
H        -0.99828081229852   14.93103200267099    6.68521598697647
C        -0.82487065173278   16.15100106125916    8.38551047232109
H        -0.34193880124367   16.93293670509333    7.81194473902405
C        -1.03089017951470   16.44383441472113    9.77921674439101
H        -0.60411988904732   17.38799844852211   10.10402937137668
C        -2.11062663765048   15.95712008233386   10.54479144684437
H        -2.43151453742120   16.59271779896952   11.36656990976664
C        -3.18559476067536   15.16543724033333    9.97838930369431
H        -4.17154417175470   15.37494173764676   10.37500527999118
C        -3.07337842589670   14.25821101402207    9.00235649167213
H        -3.95532331754965   13.79398056554556    8.58309107353410
C         0.82862961784157   12.64081611315821    9.09604829886407
H         0.55517387390652   11.84198445674864    8.39861484192283
C         1.53147402882396   13.74686875858987    8.37686473076863
H         1.76816519645401   13.58607621673932    7.33429308335742
C         1.89715389377856   14.88821707482538    8.97677516540176
H         2.35292047197579   15.65844930483952    8.36616294099114
C         1.73117811497330   15.21887931006882   10.36817472972270
H         2.01638126419780   16.23595022259152   10.61992767982262
C         1.80121667307806   14.27805266417686   11.41920697027307
H         2.16556050139887   14.65909098627813   12.37029594135732
C         2.12507475129455   12.88216123672597   11.20096354347613
H         2.75284267466435   12.42954547234312   11.95936948610682
C         1.75705166206106   12.13480873577205   10.15431848651618
H         2.13266629024295   11.12639370922650   10.04464114422037
C        -1.67489639723566   11.84551222628360   10.43682949967829
H        -2.65301779978066   12.24550233022036   10.75604466287280
C        -1.05653758735186   11.12204106957570   11.59298449659641
H        -0.01204118393120   11.29892036334165   11.80735365804706
C        -1.79154903818069   10.29549548650914   12.34619544790225
H        -1.35830677368846    9.86990009643217   13.24190855123842
C        -3.13759394975871    9.89706043226854   12.04634017121525
H        -3.74973513282987    9.60695594819455   12.89056410047901
C        -3.62582500828397    9.70358536823564   10.80100555545141
H        -4.60921264128363    9.26365979366043   10.69323874329675
C        -2.86367291696097    9.86158564802297    9.59473916856495
H        -3.08292327643448    9.16019106753706    8.79919581979084
C        -1.89999078510374   10.77383140312183    9.41765818618442
H        -1.27847078248282   10.74317463492657    8.53380070302946

