43
CSD_code = JUFQOQ | q = 0 | S = 0 | Stoichiometry = C17H18CrN2O5 | MND = 9
Cr        3.48070045116100    1.72973181527760    1.82918793303291
O         2.41643672897334    4.36203273432525    0.94330440854032
O         5.99391415950495    3.15692412622145    1.11935515350762
O         3.47555717410172    1.45994098290276   -1.13414357209557
O         0.39871159131704   -4.97636649438796    2.64773329749177
O         1.78829954621990   -4.88618019046274    0.86868972290348
N         2.82876149931183   -1.57282633964082    1.36887079289685
N         0.25119987207582   -3.26874294551470    1.16435962591342
C         2.79842855957308    3.34119810343929    1.33098311080054
C         5.04378248096478    2.58025305986536    1.43791665011583
C         3.46741860976731    1.51636262694100    0.02519931919452
C         3.06455964100726   -0.51703377408184    2.22284614556877
C         4.23470571742785   -0.17532324728618    2.90482535726423
H         5.13726252873418   -0.76503265085096    2.81758382069995
C         4.18823262340421    0.90999344981234    3.80741867567438
H         5.07099851487236    1.13290117875176    4.39581622525017
C         3.00925506506840    1.62070498333208    4.04256214750819
H         2.97890339857205    2.38992452998203    4.80342261363466
C         1.83615592127530    1.29033138467101    3.32913597341863
H         0.90317111158897    1.79785231041939    3.54558750071974
C         1.87725155365878    0.24163506065367    2.42011329456840
C         0.77021247402967   -0.46495718882820    1.68467949244532
H         0.05882034816089    0.20387290356675    1.19619697757837
C         0.04125584396802   -1.38699280608191    2.68177436633527
H         0.77584453584588   -1.83103253399048    3.35830817466987
H        -0.66056437665888   -0.80176380140657    3.27716364628516
C        -0.68909338967408   -2.52409929077160    1.97244771666913
H        -1.12707577766475   -3.20934246596555    2.69933307419035
H        -1.47489934935970   -2.13478707365908    1.31776781340155
C         0.84593778844156   -2.48994271367043    0.10863085860084
H         0.04188232389764   -2.13253408418724   -0.54481030968452
H         1.50905847952865   -3.12291675698907   -0.47756221802599
C         1.58799315943429   -1.26689240555478    0.65024204054657
H         1.82708098553049   -0.60931887283359   -0.20501379997316
C         3.91777608511582   -2.13649785536636    0.60974951257219
H         3.58559049250629   -3.05667759064300    0.13409292513519
H         4.73664617404279   -2.38273045960699    1.28237951090620
H         4.28007055596686   -1.43740412218249   -0.15549630502410
C         0.78824812682424   -4.41209419006289    1.65424526449707
C         2.32824722566525   -6.13081371863432    1.28405512568466
H         3.10693262809607   -6.37504519895342    0.56559928890508
H         1.55504622699948   -6.90133365225858    1.28656810220698
H         2.74538269072352   -6.04987682629048    2.28978054546929

