55
CSD_code = JUFXEN | q = 0 | S = 0 | Stoichiometry = C23H28MoNOP | MND = 8
Mo        3.57874251939124    3.27815603099769    3.51028227551477
P         5.78887540300738    2.66283075506868    4.03134622501454
O         3.01903140002139    0.53038668079942    2.68527155346345
N         3.24731048181031    1.62328885023403    3.10079831556338
C         2.08043480410618    4.55016415590729    2.27359276710246
C         3.22080257823507    4.38156974712801    1.44869171157981
C         4.30773403994637    4.99926751455985    2.07972168561311
C         3.84612838067076    5.60024270640265    3.28165158193364
C         2.47085719275300    5.34305651086516    3.38403716836323
C         3.11703364451151    3.15818485226121    5.43233289757765
C         2.45880395321833    2.19901008452840    6.36915142248376
C         3.17653521915860    2.17840510369998    7.72867827888892
C         1.02651506560036    2.72707121280438    6.58219294876724
C         2.37367300799775    0.77499581691031    5.82204826310522
C         6.67855307398776    3.96418920423865    4.93611438081614
C         6.59351945005721    4.03319989466079    6.32311272665812
C         7.16676051658086    5.09043572474867    7.00595877699520
C         7.81887268408445    6.09627398338364    6.31109206264588
C         7.89161299130330    6.04434716827541    4.92849226171695
C         7.32020026046705    4.98779405319768    4.24365533688742
C         6.89095472567860    2.34406677917528    2.61278572436093
C         6.30736667629305    2.03247930316464    1.39147062510282
C         7.09893621329513    1.73669523337197    0.29541198232944
C         8.47858519097957    1.75326750526998    0.41521490251892
C         9.06635902405147    2.05551562078518    1.63392400214269
C         8.27801070164627    2.34502434680934    2.73196697314660
C         6.14658887494011    1.14427138831775    4.98785756212120
H         1.05748203660239    4.33870510405842    1.98083262522496
H         3.22198467480843    3.93822986843764    0.46070323285681
H         5.29183985899464    5.13740746950584    1.64673653698360
H         4.41646074250843    6.28356873061501    3.90153823865761
H         1.79496075743554    5.77187074640824    4.11549494422610
H         3.21287706482891    4.11892524205202    5.96560402539460
H         2.62033652295893    1.57088233143238    8.44000330286720
H         4.17325404533818    1.75296625791673    7.62735859859785
H         3.27045704835328    3.18400482038275    8.13488079637181
H         1.04001754989705    3.70691363418830    7.05546381040100
H         0.52062963956939    2.81001064699032    5.62193718379586
H         0.46515760822591    2.04360310470551    7.21570708611650
H         1.94315762246120    0.11056912231376    6.56919757689692
H         1.74477668075426    0.74861753142289    4.93640317816207
H         3.35908803731686    0.40337973669078    5.55155384305834
H         6.06827092440765    3.25948282789479    6.86437407835212
H         7.10167915877498    5.13390764908428    8.08350792676380
H         8.26471860286421    6.92238063307285    6.84506045463360
H         8.39246636057278    6.83124616899274    4.38298966369918
H         7.37928486871516    4.94794123936158    3.16354124165499
H         5.22530964087036    2.01436510103592    1.31595560256021
H         6.64078418613196    1.49213474995772   -0.65159057462192
H         9.09839939410450    1.52732881393730   -0.43991317014728
H        10.14269693017128    2.06302101241444    1.72753734253314
H         8.73589520384910    2.58295030558312    3.68324404231667
H         5.61041159321785    1.16923838069483    5.93426743396305
H         5.77552620656347    0.30539647722244    4.39518109760087
H         7.21957896580401    1.03676206582839    5.15617546860573

