65
CSD_code = JUFZAN | q = 0 | S = 0 | Stoichiometry = C26H24N4O6S4Zn | MND = 6
Zn        7.18168179188460    4.31555963588845   15.00581450833190
S         7.20278605705916    3.22128624989745    8.54550037799601
S        10.01798818847439    5.96206123808849   20.56250228055086
S         9.58277937437743    4.51941981210386   21.93699982572323
S         8.95169912508721    2.27441583421698    8.12394391707472
O         9.03334804305618    3.79519645056076   15.22610986580566
O        14.85523440278182    6.57655174720209   18.89102946711180
C        10.55313391852404    5.60982150820042   15.17215584448098
H        10.71937378785599    6.59699328653990   14.77081360731463
O        12.77492151538255    6.16145044911192   19.68921856688343
O         5.36538642503647    5.61694317894033   14.79623456333500
H         5.77189394447871    6.38467739330700   14.37872977910112
H         5.08814600027484    5.89232708332192   15.67580084833337
N         6.85097598109671    3.45826353696791   13.07120699984570
C        10.49392939408138    1.95347751907156   22.09082000072797
H         9.56882980632036    1.74970704966543   22.60649838473402
N        12.57627966551374    1.16409806763352   21.23656149294348
C        11.98906106789048    3.46954653401421   20.98837801697253
H        12.26310307834774    4.45365101547269   20.63128502880105
N         7.32306398753827    5.12506447853019   16.99180911326296
C        12.40984179095432    5.76067373719648   16.78013104173714
H        12.64016257492193    6.76640712215947   16.45425270093547
C        11.44833282706497    3.23279351794144    7.66673517357979
H        11.63692527881156    2.26082234185364    7.23984809519858
O         8.38564269362162    5.64835635738152   14.26651627338357
C        11.05758390356908    5.69586608866097    8.72205081085191
H        10.94512889135819    6.68787815666242    9.13721208113084
C        13.74803855406523    6.09938993957001   18.89114322721452
C         7.93000200090668    2.90823331768262   12.51584047418242
H         8.70168486637939    2.57591507709291   13.19551155861674
C        10.19828666808473    3.55354930896117    8.17962513845450
N        12.24761306600595    5.40585835730948    8.23364885451026
C        11.43152923992478    0.95903715449133   21.86385464602156
H        11.25225381946380   -0.05492710837790   22.19679788271920
C         8.10101549968342    2.78017191113579   11.15315729784247
H         9.00060293005336    2.33031204680156   10.76286275408584
C        12.84359689111341    2.38888495341262   20.81806389698608
H        13.79584318712053    2.52106928872026   20.32218924408211
C         8.86718442274759    6.51346721371144   18.18555952135058
H         9.45338577671598    7.41727929852498   18.21774445039621
C         8.05430874897567    6.24346582117808   17.10997806722762
H         7.98809317796091    6.94912065976263   16.29466945447293
C        13.09399973922262    5.22923283247536   17.82787549292591
H        12.86288536402115    4.21990915063782   18.14969499036910
C        10.78754338184428    3.23130514809787   21.63303274394595
C         8.14627866833341    4.45118412357147   19.13780853472990
H         8.13705890378213    3.71537965069886   19.92667835259747
C         7.10174602342854    3.25007620018835   10.30900492572740
C         8.94551663021475    5.59181338057611   19.23340935210874
C        11.35298776256781    5.08591266237188   16.14321090839987
H        11.10150479988198    4.09522887691302   16.50534335337473
C         5.88307742556589    3.88523688258658   12.25939884258062
H         5.01547716476691    4.30993399363612   12.74105396444446
C        12.43614822357450    4.20312289142470    7.72157785232894
H        13.42540477090055    4.00564073433789    7.33262134324121
O         6.47425232263550    2.32552472413805   15.80746356850225
H         7.33578924095342    1.96365295369992   16.04444816412749
H         6.10490695737990    1.75346128586392   15.12869494667259
C         5.95914639925976    3.80414583114755   10.88597817426055
H         5.15830544010346    4.17056349736801   10.26434296048183
C         9.31775166032413    4.98343947608716   14.84316688667881
C         7.37229927049591    4.26658992877338   18.01577401185031
H         6.74494446620673    3.39256475250532   17.92507791778494
C         9.98999061626396    4.80879891443950    8.72543230995690
H         9.03681240364799    5.10334548086265    9.13660527074300

