48
CSD_code = JUGNEE | q = 1 | S = 0 | Stoichiometry = C18H27OSZr(1+) | MND = 12
Zr        8.13579388165468    7.36797060169568    4.14615000607650
S         9.84626338144743    8.16101852307067    5.74006600326762
O         6.53170694839232    7.75151766623815    5.55543406721642
C         7.26275152394356    9.41252447652393    3.14726453726062
C         8.65716573489934    9.37325215684172    2.88583271785982
C         8.90649134711364    8.29833166496777    1.99740903716080
C         7.66726694196438    7.69637381857146    1.68617168009541
C         6.65548984560898    8.36114673286001    2.41167325779338
C         8.58270329665223    5.24978617935266    5.32474462700594
C         7.33640408838809    5.06824486167871    4.67697815952072
C         7.56050860236880    5.10026984482653    3.28072006252419
C         8.94536722181737    5.29862845054314    3.06410791644448
C         9.57650431822493    5.39479741426560    4.32468117338119
C         9.84973498971385    9.89526896827572    6.42532969576569
C         8.58413371604375   10.65411674006473    6.02454918666775
C         9.92846728443556    9.74655811409063    7.94282189295428
C        11.09737481670488   10.59385827531591    5.89690996665585
C         6.70592842714310    7.64534185625695    6.99528796287886
C         5.63937712235892    6.66113759200260    7.44878083454060
C         4.45660931222682    7.07763970672588    6.57289828868382
C         5.12188378125742    7.54029064958934    5.26834894645141
H         6.73292366814218   10.21094168178578    3.65413721699217
H         9.38634036851591   10.12511392423191    3.15935303764577
H         9.85640496405998    8.09083050318919    1.51666347485954
H         7.50522801669262    6.94386615162221    0.92576164746952
H         5.59001655960466    8.22206629877639    2.27015110610725
H         8.77942384621239    5.14422044092774    6.38489728441780
H         6.41594620611613    4.74743870946336    5.14979022645323
H         6.82845393980639    4.85059233337030    2.52157656647121
H         9.45480594093761    5.22757307050648    2.11038130886522
H        10.64448094171599    5.44065866911501    4.50379472241066
H         7.71229082345850    9.99337392636443    6.01080512016020
H         8.69627126344261   11.11720876774230    5.04682280608951
H         8.40230780290174   11.45118551024472    6.74469443499259
H        10.07607657807707   10.72047222475074    8.40429403994511
H        10.76530989665888    9.10757970913273    8.21351745949511
H         9.01643262930199    9.30531611576146    8.34045625273843
H        11.11038980790956   10.60007278536344    4.80777123259829
H        11.12934311450407   11.62175940314288    6.25226776907049
H        11.99029455669046   10.07845814394302    6.24225188937607
H         6.52294523943434    8.63059243764041    7.44571800157039
H         7.73989318674602    7.32898521975525    7.18429589077265
H         5.94606771171892    5.63522208972653    7.24435631041419
H         5.42085953591800    6.75326754273959    8.50898307397268
H         3.75506620506476    6.26501415619119    6.40432549995050
H         3.91859528045138    7.90241630982060    7.03839058735058
H         4.69018520496470    8.48190457088359    4.90808331591964
H         5.04622012860158    6.77719501005799    4.48029970368316

