74
CSD_code = JUGRIO | q = 0 | S = 0 | Stoichiometry = C39H25N9Zn | MND = 5
Zn        4.64074057902682   13.70275628864606    2.47946781250464
N         3.80142822092212   13.05701515778144    0.80644900714648
N         1.61516180156780   14.00354981627521    1.06500177300512
N         3.04943467266615   14.84361766638025    2.79104999303528
N         3.80915911256975   16.07403484775179    4.70164141439930
N         5.62541162785940   14.78118688213027    3.82329780292189
N         7.81758983800378   13.85090149123778    3.55277563821928
N         6.37701322637828   12.99220300739550    1.84101152793440
N         5.62845638380254   11.79657691853731   -0.09612178455929
C         4.38253369916859   12.21496543309606   -0.08253539161199
C         3.40275719142347   11.81797241171174   -1.07998661293798
C         3.46686506589330   10.99193861009824   -2.18929569891244
H         4.38828364220325   10.49541721192571   -2.44963250772970
C         2.31516961451710   10.83328586657948   -2.94155278890873
H         2.33123876620047   10.19538866395092   -3.81346519863353
C         1.13125211990088   11.48234482819463   -2.59858753106439
H         0.25381268434011   11.33388496938850   -3.21134447606092
C         1.05993917947352   12.31213556713166   -1.49235552924388
H         0.14792324830284   12.82081714541826   -1.22217575257825
C         2.20714911593508   12.47413430221918   -0.73416756167112
C         2.50539547760037   13.24830490511671    0.45905384787876
C         1.87404932278776   14.73843637558399    2.12487470106421
C         0.88099013853969   15.58619010286756    2.76278388252240
C        -0.45184028351330   15.84668688507804    2.49276795833243
H        -0.94547443801031   15.37096090149296    1.65998419769168
C        -1.11568803471416   16.73327185542787    3.32375786193565
H        -2.15646723626646   16.95846661348860    3.14079173317780
C        -0.46775319336105   17.34568493046282    4.39416838820821
H        -1.01957419015655   18.03331478235051    5.01873549588403
C         0.86523282877853   17.09128190976666    4.66946488658346
H         1.37496932952574   17.56336648312562    5.49450355287223
C         1.53524667993827   16.20383317049457    3.84448590104902
C         2.90097121946716   15.70710764432406    3.82506127911531
C         5.05452556282108   15.65310034857012    4.68959160334940
C         6.04719329878781   16.08892761559343    5.65752976001415
C         5.99845608756887   16.95857934436589    6.73392015019567
H         5.08057088062280   17.46518294714907    6.98727187574788
C         7.16143015194154   17.15020556227015    7.46055466260634
H         7.15732691971446   17.82264402087277    8.30626423299869
C         8.34298832048984   16.49404621118066    7.12258461072252
H         9.23037123741446   16.67158659108958    7.71289291307883
C         8.40039857144019   15.62452022102159    6.04666890944826
H         9.31222335453112   15.11566625956457    5.77595550130162
C         7.24071826950826   15.42645241790154    5.31632541610335
C         6.92933219158613   14.61373925533462    4.15280124698476
C         7.56186332206523   13.12579157382990    2.48544633597220
C         8.57061389320426   12.32694203152168    1.81027662699136
C         9.91809142580830   12.11187240511623    2.04556553837189
H        10.41154227113280   12.58611360244813    2.87935608522135
C        10.59810578443645   11.27602519257759    1.17597783891105
H        11.65059502655833   11.08727966701251    1.33115510020936
C         9.95281307413095   10.67248111875946    0.09893869753179
H        10.51856846237611   10.02852803340962   -0.55881732173922
C         8.60615280689129   10.88434876836881   -0.14384342224869
H         8.10003378092389   10.42371914560880   -0.97749037993800
C         7.91859603220273   11.71698464898782    0.72284714423623
C         6.53704425832325   12.16475317439790    0.77958701746420
N         4.07750674061255   12.10655664067346    3.78981330540166
C         4.93287421828533   11.64940946011852    4.69657017468773
H         5.93475609147012   12.05366295437433    4.64851959231786
C         4.61101865995039   10.71237141363180    5.66681052326463
C         3.30242971511312   10.21400033843482    5.68929530712047
C         2.41566601814469   10.69226456911393    4.73243773305058
H         1.39667417808193   10.33736038343481    4.70706291097442
C         2.83861936702344   11.63058151855387    3.80994903747289
H         2.16259846026184   12.01582530771242    3.06015264144506
C         5.63697979637613   10.26022143176784    6.65430406730975
H         5.78685225736331    9.18351608866408    6.58349784928375
H         5.31198278751486   10.48355415478760    7.66983209357462
H         6.58594306593721   10.75785045567163    6.47466193331072
C         2.87702543095522    9.20646677446157    6.70452973411695
H         3.00540600249619    9.60564993933170    7.70992930283391
H         3.48947973310110    8.30898162256806    6.62730105337022
H         1.83465508205126    8.93300314431185    6.56636477536042

