91
CSD_code = JUHFAV | q = 0 | S = 0 | Stoichiometry = C35H47MnN2O6 | MND = 6
Mn        3.11424295426336   10.72352391343986    6.40244792033900
O         2.31220702735120   10.93673052481991    7.99865270482556
C         2.25057501295647   11.74716452328671    9.02995916358538
C         1.24838736255023   11.57754124185301   10.02250653947587
C         1.31750518557863   12.33235971759840   11.18334483113453
H         0.56928259221126   12.19422551818416   11.94342332091951
C         2.32363465022429   13.26670470415294   11.39238420579352
C         3.24139665829662   13.50696183607966   10.37689098814206
H         3.97579389133845   14.28502066182469   10.52115617080889
C         3.19868839339548   12.78303939851100    9.20176536318502
C         4.10102441669192   13.19125129791475    8.06724153999004
H         3.49006771430768   13.72379404614103    7.32926428949608
H         4.85973799257691   13.89052522431297    8.45637510697850
N         4.76280178046212   12.09524744406800    7.34624358671327
C         5.56778885777379   11.29078052208686    8.27346596581008
H         5.01209340880879   11.19863959501221    9.21045696188925
H         6.52140411334962   11.79743004659507    8.49384089188390
C         5.85517010323438    9.90056111778969    7.70877758130917
H         6.40843930089364    9.99145410968028    6.77031518224025
H         6.48437507718418    9.34162315226436    8.42130736045634
N         4.61584363158686    9.16448249808796    7.43364205762646
C         4.88092954973077    8.04992659186046    6.51201414728029
H         3.91828829261781    7.55406968169307    6.33946618626744
H         5.55599779830267    7.32410862219787    6.99647623561231
C         5.45588466585016    8.41160296456899    5.16571784429755
C         6.40477622541344    7.57905603610725    4.60562215296007
H         6.80221489581151    6.74269969250660    5.16046965474561
C         6.85323437173943    7.78721511004614    3.30743292222240
C         6.28543374426294    8.80608112484286    2.55378561957878
H         6.58730224446248    8.92546299329740    1.52855880925302
C         5.34103867148902    9.67220858942317    3.08347463841827
C         4.96204676013752    9.52287293640712    4.44313946579945
O         4.23196251686892   10.42293952214171    5.05708228907062
C         0.07369960166259   10.64304998751639    9.75415752690222
C         0.56313399558897    9.20405583819376    9.54613003739892
H        -0.28812189597444    8.53486637160698    9.43639362104249
H         1.15518003878552    8.87572567237103   10.39880784074868
H         1.16860031736146    9.14601268952559    8.64685682429307
C        -0.63275589794170   11.13068957496397    8.47972279522750
H        -1.47298602128658   10.48164413881507    8.24119592727534
H         0.05457497276034   11.12623881016612    7.63690452256775
H        -1.00350959247281   12.14488986546615    8.61605186722650
C        -0.95394591414534   10.63319742055824   10.89116357541578
H        -0.51685685423517   10.26216002061300   11.81586773363644
H        -1.77519999025420    9.97205363412572   10.62170656372819
H        -1.36790386352292   11.62470014853193   11.05956496110245
O         2.47618072968506   14.01761160397709   12.52903439179837
C         1.55130416098405   13.84754737737767   13.57235030371445
H         1.86682907035948   14.53037010732317   14.36013958505786
H         1.56065150730377   12.82271850543959   13.95911764081334
H         0.53466348255204   14.10687402951850   13.25790241623709
C         5.62155876804600   12.69238130930389    6.32747224915296
H         5.01571894179553   13.30292408910344    5.66237516246714
H         6.10264859092434   11.91837464431127    5.73521131008326
H         6.39476519445563   13.32565358401688    6.78758180152590
C         4.08250100782539    8.59829952411395    8.66955953355606
H         3.18577038311241    8.02567422574778    8.44518145926108
H         3.81379140390574    9.38763787026358    9.36699330094170
H         4.81813313477075    7.93307698015304    9.14671691528001
O         7.82195198821687    6.92312897717524    2.86016513949756
C         8.30575111860447    7.08368387671546    1.55199721662531
H         9.06930592907713    6.31747482537751    1.42373488599226
H         8.75796936733977    8.07074997246172    1.40566708376832
H         7.51728059190973    6.93289341777948    0.80656321581589
C         4.63892456485734   10.71093117596199    2.21479755891309
C         4.84021910812151   12.12198111075183    2.78158599185659
H         4.42321644660252   12.85884067068992    2.09782551660933
H         5.89967893443207   12.33288392319723    2.91649551329999
H         4.33262792041482   12.21367042160763    3.73719939946286
C         3.13890643541750   10.38070269298645    2.20936640208827
H         2.59082085979467   11.11212383824641    1.61868680668250
H         2.74316247663957   10.39728745662272    3.22236399950214
H         2.96859745683206    9.39175141453630    1.78769461199304
C         5.13294799618730   10.70723405177227    0.76410520852522
H         4.97339944235073    9.73991716715162    0.29333462467003
H         6.18780203327084   10.96749201980716    0.70641149506656
H         4.57364588467019   11.44843367249549    0.19660893333905
O         1.88327103255685    9.43592892157693    5.89195239838814
C         0.83269893666608    9.62505687689327    5.21926605349813
H         0.22255181813088    8.73815125256784    5.00635391990633
C         0.36389337562565   10.85981741652894    4.70379370287673
C        -0.83506269681665   10.91259242464637    3.96307046910804
H        -1.37914266489887    9.99125567951476    3.80894442064712
C        -1.30583663140614   12.08902593703797    3.44617220616845
H        -2.22539660664668   12.10981071823040    2.88068605339441
C        -0.58885594069300   13.27301236401983    3.65176119804724
H        -0.96095938270382   14.20107723995022    3.24244434600195
C         0.57979450261090   13.26439246125786    4.36761372187569
H         1.13992414592561   14.17353545940001    4.53101408484961
C         1.10298227446256   12.07271970670209    4.92010982430065
O         2.20963414866814   12.12640987444267    5.58885243266079

