62
CSD_code = JUHNAB | q = 0 | S = 0 | Stoichiometry = C36H18Cl3N2NbP2 | MND = 5
Nb        4.16513472406796    7.12478031987307    9.65364948797582
Cl        5.29206735317126    5.08794200198219    9.65740910014470
Cl        3.03806386886423    9.16951123812362   10.61328643416455
Cl        6.03344676943800    8.38830410524311    9.21864673693098
P         2.29761587227999    6.76325091868058    7.00289052321100
P         2.20279549995516    7.52239238093219   11.95624853177982
N         3.55047932434775    7.11821594602831    7.89522498328309
N         2.62149395831910    6.44513713403451   10.64198854532085
C         1.43106304311347    5.31948476574302    7.68046839219261
C         2.25339891013921    4.23469457073193    7.97461472777474
C         1.70827077529219    3.09949088188624    8.54521609395410
C         0.34527767816404    3.04480002741169    8.80442199604943
C        -0.46912505652950    4.12326223555977    8.50410856146050
C         0.06785949103539    5.26813631042072    7.93950518741224
C         2.82508873473483    6.34092944055442    5.32592201320333
C         4.17870936824307    6.44423514961476    5.03201227703131
C         4.62504028044226    6.11800182681953    3.76369540897491
C         3.72213241969147    5.69058025650044    2.80262593366596
C         2.37229077539329    5.58088861562821    3.10338821311334
C         1.91756372009452    5.90290720500647    4.36880019233866
C         1.16729068147573    8.17390390642790    6.97567676091100
C         0.94536146889899    8.94737272426080    5.84414147582763
C         0.14124825004931   10.07031921299605    5.94170271018429
C        -0.42268089578447   10.42161444092739    7.15814097412923
C        -0.18849647570019    9.65310384038293    8.28878145162954
C         0.60988694041752    8.52895092394735    8.20095425896057
C         3.88852855957248    7.51596778010772   12.72431113882652
C         4.15271213962156    7.70325004129819   14.07751834094164
C         5.43354248170380    7.61222960045986   14.60022791002282
C         6.55154875146646    7.31834872860076   13.79727865224266
C         6.12236478376410    7.16072027823056   12.52943808622861
C         4.99594181521499    7.21820038746985   11.91568233871918
C         1.74801962194463    5.87153154634101   12.64789871942032
C         1.31516628061674    5.03984229055134   13.60941475258634
C         1.34243119934947    3.76933860620734   13.25515196161010
C         1.71868012323284    3.25528750561929   12.13317602563060
C         2.16978073448507    3.99336071661598   11.13348548859087
C         2.20699930587358    5.33152297551377   11.33836841119992
C         1.20504642771195    8.72096107537481   12.93307256281375
C         0.50689788210852    8.20071012126072   11.71166688981664
C        -0.73047536878232    8.61553374629698   11.42228201297049
C        -1.25099408222429    9.47570912301324   12.29047639628146
C        -0.65604952551605    9.92507656681607   13.34387745213304
C         0.56937330993098    9.58598476438254   13.72221560917359
H         3.31639600017115    4.30359298694668    7.76460307526201
H         2.33982924219639    2.25543643436787    8.77703230936950
H        -0.08076596086527    2.15996349522067    9.25325561085274
H        -1.52716091189974    4.07735923784697    8.71580721931404
H        -0.56504490196830    6.11289137423174    7.70623790408445
H         4.85567378270310    6.77830801321320    5.81084472924191
H         5.67478055548417    6.19550895882964    3.52321600002584
H         4.07123529038555    5.43751436763574    1.81253349449133
H         1.67702535106199    5.24222527209486    2.34955674953577
H         0.86973803299772    5.81834960020889    4.62409765255447
H         1.39710747761260    8.66993569299308    4.90165496814199
H        -0.04029825942061   10.67696068772142    5.06671958617625
H        -1.04401163324803   11.30215566917287    7.22652851520956
H        -0.62189474194931    9.92464687863859    9.24034338354099
H         0.80422299492905    7.91392274551522    9.07398059227959
H         3.31011005951093    7.92967600951229   14.71739698157554
H         5.60112631892702    7.76843272902929   15.65556828701713
H         7.55293938372985    7.24663361298653   14.18075922048818

