34
CSD_code = JUHQAE | q = 0 | S = 0 | Stoichiometry = C11H13N5S4Zn | MND = 5
Zn       -1.15252026257896    8.60129882572752    8.42875359376290
S         2.37270938551574   11.73731850785463    8.05224971489693
S        -0.31035752640776   10.74416822754501    7.52064452459838
S        -3.26191060151111    7.57988193487559    7.61949797276755
S        -4.89342304788407    5.67412292477190    9.08300353750506
N         1.26771818670045    9.95598977142836    9.58941770452085
N         0.33273727073604    9.05833857883218    9.85250347616142
N        -1.67671010389468    7.45752599385305   10.12158458324180
N        -2.72907281804717    6.65258257133790   10.12657507741610
N         0.09489063353713    7.22173674991968    7.25354985011160
C         3.60991033969668   11.38118844303009    9.33444671450393
C         1.07900687687458   10.67345069951469    8.51169391457209
C         0.24085139172992    8.43158606992695   10.97888875997833
C        -0.83706239357928    7.51078032487333   11.10507941237737
C        -3.48520376921779    6.69058140526926    9.05537923961879
C        -4.80831909215903    4.97127760118371   10.75742491361287
C         0.89917699535630    7.64900872520416    6.28613315532070
C         1.59392497929085    6.78941995759780    5.45223825264949
C         1.44235748996316    5.42365108223384    5.62715183868494
C         0.60232231150318    4.97672343497017    6.63516342028382
C        -0.04830647973464    5.91114842459918    7.42089166631534
H         3.17188983281951   11.57458346477309   10.30726465300039
H         4.44536115627472   12.04680004020787    9.14590950952738
H         3.91785682201130   10.34412403649745    9.25819301758729
H         0.92714938049780    8.60464671998396   11.80194915135752
H        -0.95452317714001    6.90549458325445   11.99846666940347
H        -4.84669048028019    5.77687024760816   11.48212803918139
H        -3.88577756756295    4.41157317253797   10.86320922574401
H        -5.66997699994015    4.32016310258432   10.85789385952900
H         0.98346139414947    8.72115018211581    6.17410445096282
H         2.23393112902749    7.18726382415475    4.68097140496247
H         1.96360572320029    4.72311092175055    4.99204194483276
H         0.44865293646146    3.92350282220853    6.80856236599444
H        -0.71375991541058    5.59993662777616    8.21393438501621

