51
CSD_code = JUHRUZ | q = 0 | S = 0 | Stoichiometry = C24H21CrNO4 | MND = 9
Cr        2.45626598632025    2.54363773653257    1.30422829574208
O         0.35575333642759   -1.92077345690677    3.10379634906842
O         3.31869281098952    3.69800644347501    3.90571270269154
O         2.33438492810612    5.45872514074126    0.71358253643137
O         5.33545995914611    3.12847826835227    0.83816163961703
N         2.55571430769208   -2.42466011296395    3.49864181520474
C         3.71580496324788   -1.67883744883077    3.68868534228008
C         3.48691425613974   -0.36755403522881    3.61828994985503
C         2.02146118041472   -0.12296856159793    3.41047686963405
C         1.49956403180583   -1.58287459773789    3.31173387532862
C         1.37703037708129    0.53621078413198    4.65288546095208
C         4.73656915051880    0.43207563575513    3.75710465671039
C         5.74926839791734   -0.64262016227194    4.22873786321639
C         5.14309359234555   -2.03278809736657    3.90985228244625
C         2.95115257451963    3.22210785339947    2.91549538757482
C         2.33662820257352    4.32234237475485    0.92091818624586
C         4.21715257199737    2.86885755571938    0.98269019312667
C         2.44745433246394   -3.85543961031418    3.56972920088234
C         1.71287813833454    0.58354785481324    2.11519314119615
C         2.50499383546210    0.30970226453175    0.99056645439480
C         2.21397855072078    0.89486161312478   -0.25532257131039
C         1.13053780961009    1.75960988064829   -0.38581936686765
C         0.31124195626479    2.01652245214700    0.73172094475322
C         0.58615183016430    1.42362792815081    1.96139855509360
C         1.96193503718237   -0.04906141426840    5.90909935853192
C         1.57132022662899   -1.30798855753643    6.34932497898119
C         2.16306999642397   -1.87887197795272    7.46165732938892
C         3.14706580737558   -1.19386470754357    8.15408448714677
C         3.52006406851077    0.07317470030144    7.74030934386660
C         2.92884178277840    0.64258539416203    6.62641408207658
H         1.56941288502175    1.61048692787066    4.61949339969238
H         0.30006937461402    0.35325665534391    4.62896871580515
H         1.40908697562109   -4.11825575238971    3.36986661957993
H         3.09246218797883   -4.32760334978134    2.82607674654935
H         2.72785303767501   -4.21052667110700    4.56396359541623
H         3.30643081661225   -0.41629008957311    1.06418225999682
H         2.80015950537621    0.61956570708241   -1.12435848046890
H         0.86769118613064    2.16827629222752   -1.35363306154389
H        -0.58327173377490    2.61625591118439    0.61179827347679
H        -0.10429362716736    1.56261421316954    2.78201991074280
H         0.79536079185674   -1.84280999013766    5.82084124124345
H         1.85273373668426   -2.86002306357470    7.79139605798736
H         3.61289505264219   -1.64205379982488    9.01942080234832
H         4.27432278787892    0.62039348915470    8.28659260062548
H         3.21578411955778    1.63600174748296    6.31364468715434
H         4.64940892489495    1.24519033553267    4.47452223586371
H         5.02710619539428    0.87605604198414    2.79970298129416
H         5.88044231676734   -0.55461494507343    5.30676251706219
H         6.72113283273646   -0.51127705947354    3.75834822864143
H         5.58362995140023   -2.47187809599597    3.01020794428504
H         5.28313868293233   -2.73723564432600    4.73023337998857

