53
CSD_code = JUHSUA | q = 0 | S = 0 | Stoichiometry = C24H24N2NiO2 | MND = 4
Ni        4.04420074438794    3.16400247932540    6.12181033962733
O         5.17253622845274    2.49476185090842    4.81635524164498
N         2.93200775747849    1.66884688397124    5.77553231094669
C         1.78500284654529    1.29016776473231    6.30374926657055
C         1.11563547266176    0.13272624272235    5.88102737680806
C         1.64736538810994   -0.64831617497804    4.88670769997260
C         2.87219348457782   -0.27690858276194    4.29915683448525
C         3.54356031334902   -0.96665423514075    3.27730353111595
C         4.74478560222538   -0.49403889453674    2.79922833137166
C         5.36194808899482    0.66344597433040    3.28195591318352
C         4.71691730075456    1.38936192461041    4.28868131117214
C         3.47829280187692    0.90519789117359    4.79079323584400
C         6.66746191391178    1.20025708693588    2.74870362385662
C         7.59588392299673    0.12206382207309    2.19697510410952
C         6.37631900549512    2.26233502173180    1.68299373761448
H         1.37509760287110    1.91469295711972    7.08620078149586
H         0.17983542047407   -0.12840226250359    6.35043620816943
H         1.14218654489832   -1.54222980181690    4.54936309904807
H         3.10838364459798   -1.86821512297397    2.87393627992755
H         5.23586858109119   -1.04792384029468    2.01365311368396
H         7.16591223887752    1.69564192498502    3.58972958718312
H         8.57654448358258    0.54817433369604    1.99606604013623
H         7.71304463737022   -0.68817906042337    2.91309042564860
H         7.21217074280833   -0.28617907020784    1.26476970170032
H         7.30372740371044    2.69822870178152    1.31730132751294
H         5.76076577716949    3.05306002054728    2.10454349073571
H         5.84472625753137    1.81885719218420    0.84316338165828
O         2.91586603397223    3.83324160274477    7.42726669476368
N         5.15639357829824    4.65915827066499    6.46808921043672
C         3.37148587042771    4.93863987886584    7.95494319579547
C         6.30339745858541    5.03783917949550    5.93987149440049
C         4.61011014621415    5.42280453895037    7.45283145774273
C         2.72645652106796    5.66455297635357    8.96167163612402
C         6.97276595025275    6.19527910218591    6.36259607034457
H         6.71330111441906    4.41331644693884    5.15741719241550
C         5.21621074701836    6.60490908914471    7.94447090803584
C         3.34362067811481    6.82203557880100    9.44440269444668
C         1.42094272455522    5.12774137174866    9.49492346931729
C         6.44103814561757    6.97631823399345    7.35691955279084
H         7.90856539314461    6.45640887390424    5.89318664499127
C         4.54484563169007    7.29465161912364    8.96632767354014
H         2.85253886980211    7.37591762421276   10.22998053813081
C         0.49252033798018    6.20593342024131   10.04665393196859
C         1.71208540748562    4.06566157066097   10.56063168061941
H         0.92249227300734    4.63235764221074    8.65389718049022
H         6.94621800972287    7.87023038681539    7.69426627170384
H         4.98002435714548    8.19621030344311    9.36969767716223
H        -0.48813923941991    5.77982151972387   10.24756559046392
H         0.37535668368606    7.01617536213855    9.33053787019331
H         0.87623574694833    6.61417806215855   10.97885738152204
H         0.78467700056277    3.62976515708605   10.92632155729699
H         2.32764070935135    3.27493876260031   10.13908090867465
H         2.24367564354901    4.50913839860216   11.40046422140557

