68
CSD_code = JUJKOQ | q = 0 | S = 0 | Stoichiometry = C36H27N2OPPt | MND = 4
Pt        6.13593145358129    3.07773753605001    5.02975287906805
P         5.27645001832277    3.96748107784321    3.13512152518199
O         7.33630644833999    4.76479726618047    5.74739277814957
N         6.95394435309346    2.36835070093262    6.63807739896601
N         7.76001946070743    3.16237621088479    7.34802418623498
C         5.33329390098314    1.22248413340375    5.00159820632003
C         4.42397042344782    0.64845295004475    4.10664877446073
H         4.03634091937516    1.23866945537031    3.28449777004716
C         4.00857942666830   -0.65278036025859    4.24950159172915
H         3.30585729671516   -1.08016046209073    3.54735837603110
C         4.48162995352958   -1.45660104957189    5.30265040628291
C         4.06208107497445   -2.79619336042697    5.45078666005453
H         3.36543559711597   -3.19965003780864    4.72922578880056
C         4.52293026237749   -3.56656659293269    6.47936363161805
H         4.19799512025500   -4.59114310092715    6.58736882065126
C         5.42686608171901   -3.02666297071705    7.40689785125243
H         5.78566905790735   -3.64450804246676    8.21746928380840
C         5.85313201302484   -1.73273178156011    7.29128125724432
H         6.54933381288124   -1.33901952506764    8.01520497113406
C         5.39866884599353   -0.90686825408659    6.24126827941341
C         5.80867518823777    0.44303416201196    6.06979782671370
C         6.71801800241859    1.13609144885778    6.95384685008676
H         7.18159456938786    0.70093980777458    7.83066451912049
C         7.89110734276662    4.37080110923383    6.81840001602731
C         8.75979610453263    5.31222913127552    7.55465063210483
C         8.99337036578984    6.57784750910759    7.02296554571994
H         8.53883601095628    6.83647760592127    6.07736282261994
C         9.79496345194294    7.47727131895480    7.69917684043964
H         9.97547480478133    8.45857643020208    7.28398832157846
C        10.36730983875916    7.12129633771448    8.90978507753795
H        10.99302700522303    7.82561993621353    9.43908624534470
C        10.13798592666781    5.86189872101007    9.44250490578851
H        10.58576230255812    5.58717755795474   10.38677851454226
C         9.33847470322476    4.95768335119174    8.77037703854092
H         9.14853341594218    3.97390348284558    9.16945633469828
C         6.02998953457071    5.52632344167031    2.56870695869794
C         6.67602364490098    5.67801791683664    1.34833796047729
H         6.72792918132754    4.84945596186064    0.65547763428601
C         7.25627572181290    6.89288269421672    1.02430691384166
H         7.75824592044896    7.01003131117113    0.07469136341194
C         7.20029508164796    7.95252267975605    1.91350691484729
H         7.65985549713153    8.89594263499195    1.65752968161286
C         6.56256361560460    7.80120512097506    3.13586150290130
H         6.52678709387605    8.62595022005777    3.83270808704020
C         5.98156420620933    6.59250261334093    3.46385871342013
H         5.49747182690122    6.45311401045897    4.42186121861217
C         5.47318612637480    2.87238941547462    1.69659780706963
C         4.61676380015025    2.80980296444015    0.60578834700865
H         3.74079564266946    3.44121471625386    0.56630676451958
C         4.88367759657903    1.92329473682759   -0.42395978852742
H         4.21729675452151    1.87140298601805   -1.27266212582054
C         5.99793352608472    1.10231510107043   -0.36866457140228
H         6.19828654829291    0.41267215012806   -1.17518492401837
C         6.85044437072362    1.15605995165962    0.72396157791631
H         7.71226782631462    0.50730955674801    0.77072400147044
C         6.58560946696909    2.03590846369515    1.75490228577478
H         7.22456545692334    2.08272560025710    2.63598937212002
C         3.51819844090342    4.42432472839034    3.19818176119495
C         2.76663825019490    3.90087913268070    4.24564301482116
H         3.25870865914681    3.25700675033810    4.96972959201476
C         1.42345214358425    4.21045535024306    4.35781176992688
H         0.84065320499438    3.80391722543630    5.17093116155691
C         0.82854637569668    5.04804285351263    3.42778394661186
H        -0.22043225043766    5.29050591527281    3.51305452246467
C         1.57923299235520    5.58803054725568    2.39507857544018
H         1.11511202937568    6.25296183226015    1.68117334584917
C         2.92362992298717    5.28363901764347    2.27975669066322
H         3.51746723692627    5.72278069605833    1.48927799687804

