55
CSD_code = JUJLAB | q = 0 | S = 0 | Stoichiometry = C22H25CrNO6 | MND = 6
Cr        5.04898586253288    5.74352732348910    5.57391480025672
C         5.57404996834457    5.81927539699568    7.35058348096695
O         5.90599998774613    5.86331758883162    8.45392717034268
C         3.52487683512625    4.85245722976431    6.18889220128422
O         2.63497094041705    4.37501557122268    6.74427042603587
C         6.58189466769826    6.70523319406389    5.13408258706425
O         7.52809947666801    7.34200773313792    4.97055705055337
C         4.16534860073888    7.36155079096960    5.85066391207567
O         3.69785284711628    8.37069842015102    6.15099864475823
C         6.06346322154494    4.17072333437548    5.55554552607084
O         6.76639519954253    3.27917056427634    5.75749494105450
C         4.47430537794571    5.73574046290446    3.56873160915064
O         4.05235740358240    4.71665591145242    2.81333381348859
C         3.90831731525333    3.42003903314243    3.35898966530222
C         3.48142789811921    2.47851050416108    2.24327602876950
C         4.49588176350164    6.95432613013446    2.84470141120859
C         3.91140975196232    7.23652295714672    1.62709807712048
N         4.06843889998020    8.41280635986623    0.97885106289496
C         3.15179095768311    8.79516342345227   -0.09199690469746
C         3.85247267195793    8.88424829390999   -1.44967998024801
C         2.41412983067887   10.09319659351981    0.24502798118352
C         5.13051071206894    9.36764491648249    1.29382646796783
C         4.93990181611324   10.10316889815001    2.63192163051166
C         6.51454774565014    8.72567177123367    1.18041603575428
C         3.01146980384300    6.23549497537999    1.00229672159036
C         3.42265134962013    5.51970977651645   -0.11701957125493
C         2.58067147439215    4.58780303175728   -0.69548240677939
C         1.32040390593654    4.36548839694082   -0.16608347106127
C         0.90728218200009    5.07206916150971    0.95206752323363
C         1.74754551419857    6.00173729760957    1.53597391824531
H         3.15386320393612    3.43818326213192    4.15646476043240
H         4.86312206866540    3.09463425243547    3.79316679017834
H         3.37315944582769    1.47126496103480    2.63441446826370
H         2.53400314743705    2.80275016989428    1.82090165063801
H         4.22699728694035    2.47520645432757    1.45253842889939
H         5.00354679816903    7.75898888904526    3.34575791408990
H         2.40085532955078    8.00370384467123   -0.16059860102719
H         4.38746003630312    7.96139235285724   -1.65787251585897
H         3.10952526882297    9.03222612045968   -2.22877810711642
H         4.55600479591468    9.71168713078055   -1.49334739113602
H         1.65399037402732   10.27937800794403   -0.50913703808244
H         1.92405603553279   10.00609411517110    1.21159846181237
H         3.08288748328094   10.94907908514418    0.27082356355350
H         5.07151110947430   10.12003797010558    0.50449465052337
H         3.90489489499803   10.05147512233450    2.95788648730136
H         5.56857798193628    9.69241497858189    3.41697478508061
H         5.20760951775590   11.15093119605625    2.51663029318402
H         6.64535797785778    8.28895669439809    0.19269796524958
H         7.27471307060029    9.48921364367090    1.32376715904003
H         6.66274961466668    7.94766411379329    1.92224883555650
H         4.41082482497436    5.68525646948530   -0.52053080556891
H         2.90871039234096    4.03188300798944   -1.56142191655181
H         0.66315000686575    3.63898288247159   -0.62052429468954
H        -0.07269799255507    4.89662799851559    1.37098092911069
H         1.43327334472465    6.55029223414800    2.41218317427688

