76
CSD_code = JUJLUX | q = 1 | S = 0 | Stoichiometry = C38H34NP2Pt(1+) | MND = 4
Pt        4.22139181292975    0.85674197095359    9.37521191328402
N         2.77080931989623    0.33013184321252    8.02536825600811
C         2.54795317937575    0.93231461398508    6.86125969465834
H         3.21101111102129    1.74574607093148    6.58773906952906
C         1.52331225193826    0.56549927253313    6.01149618937175
H         1.38369543724151    1.08386047873312    5.07751311768198
C         0.68722226440268   -0.47426816705962    6.39577878003003
H        -0.13368340457630   -0.78036549316191    5.76636465454532
C         0.93140473256939   -1.11799333947329    7.59208384369733
H         0.30557611179573   -1.93749125675610    7.90317676131761
C         1.99418763548684   -0.70925153672715    8.39966556154293
C         2.38561270559164   -1.34596854664484    9.65226276903437
C         1.72215088690055   -2.44556029039954   10.19768667080460
H         0.85056849932556   -2.85677344529024    9.71223891157310
C         2.17538411801956   -3.01756661286388   11.36967262316025
H         1.66007571195927   -3.86790145499620   11.78880229878992
C         3.29190044961332   -2.49772010911544   12.00323080591588
H         3.65077671457485   -2.94355402024034   12.91876961898562
C         3.95232372726239   -1.40188858078928   11.46790992399049
H         4.82246142513272   -1.01925872714786   11.98896534539114
C         3.52336122295914   -0.80698804553361   10.28996371845390
P         4.60855744949784    3.02932923165609    8.50881481398977
C         2.93529242306096    3.72584909914201    8.37790682066130
C         2.49819691332491    4.58013475707974    7.37457548216818
H         3.18011841363114    4.90823577601778    6.60268570684921
C         1.17913457419058    5.00186184333973    7.36093088321350
H         0.83985966241443    5.66850234159716    6.58272325768703
C         0.29606618859360    4.56913866555106    8.33585466515779
H        -0.73055831266048    4.90074291467415    8.31765066549101
C         0.72513116182748    3.70270452217604    9.33050330792598
H         0.03348340075294    3.35742501305085   10.08403936731378
C         2.03876043641110    3.27846486870943    9.34812503709516
H         2.38462679901338    2.58435997955559   10.11676611502784
C         5.53929544836198    3.61153321309861    7.06313907127360
C         6.02711893207297    2.64525930711808    6.18784139478954
H         5.83645326039112    1.59751907860695    6.39430982082813
C         6.75362722216813    3.01815646681982    5.07184763449775
H         7.12974302950357    2.26618604424879    4.39499139267340
C         6.99887026998018    4.35974546085525    4.82864220850769
H         7.56524138584650    4.65480286039613    3.95892133194829
C         6.52263135939204    5.32558912032461    5.70233303314545
H         6.71972307463454    6.36971972759517    5.51152473607098
C         5.79609298706565    4.95785496004110    6.81991876433511
H         5.42850869251914    5.71475952095997    7.49824564242104
C         5.25540910492375    4.06268883222014    9.89955359604302
H         5.04644351316733    5.11886874375758    9.70681070990316
H         4.67172286852317    3.76418326041764   10.78028961931016
C         6.74470869319580    3.85669818304252   10.17483175510009
H         6.96482491812582    4.24297587537691   11.17327146434552
H         7.33420552149819    4.43637772217627    9.45954156649819
C         7.17975924637760    2.39400005195491   10.08009727441588
H         8.15103825389144    2.25379133038473   10.56392723872620
H         7.29546209940554    2.10473837610218    9.02709549983885
P         5.97658354232480    1.17881543459866   10.78057211966862
C         7.00378183718762   -0.31487712843548   10.76330497858929
C         6.96774857621561   -1.03221933569238    9.56969060916807
H         6.31832901901938   -0.68326446268020    8.76490578408343
C         7.72618830919205   -2.17670178405092    9.42498437553340
H         7.69888783662618   -2.73436625716432    8.50125978883563
C         8.51742691268647   -2.61291540664508   10.47739746650951
H         9.10759817664463   -3.50988260489281   10.37013584673672
C         8.54376360234938   -1.90897214047157   11.66999245954461
H         9.15172505427341   -2.25953797430701   12.49006015600452
C         7.78867286485034   -0.75778368535985   11.81919497718626
H         7.79711473821330   -0.22027331969493   12.75651090899813
C         5.71592987804734    1.71337885303596   12.48916745690937
C         6.75216855005247    2.16438025584503   13.30175575085935
H         7.76483393840792    2.20313295768179   12.92595331187451
C         6.47953091140713    2.56753809086765   14.59678795666543
H         7.28210015506059    2.91266109135736   15.23091639662205
C         5.18094115133294    2.53155840227320   15.08081051582498
H         4.97672224293097    2.84620009246955   16.09253441901161
C         4.14488819425048    2.09868819455050   14.26812356301317
H         3.13350650571410    2.07837662718002   14.64419715011587
C         4.41100787714963    1.69270772827409   12.97380432401597
H         3.61490522137469    1.34841459890884   12.32116927923405

