53
CSD_code = JUJTOX | q = 0 | S = 0 | Stoichiometry = C16H26CoN5O5 | MND = 6
Co        0.32918690305177    3.98770020515683    3.54300249162046
N        -0.99431794747621    3.68537783614086    4.83941326370026
O        -0.92536208592671    2.75671054928962    5.82531185720013
H         0.01437754309115    2.31038927275618    5.68015732164298
N        -0.89044347660672    5.29492246684957    2.95292636274049
O        -0.70899362610829    6.02626331317625    1.90022583731758
N         1.65801514849858    4.30258673174300    2.23945541983766
O         1.55377359887760    5.15599313317550    1.18274437356560
H         0.64226286672939    5.62817798771271    1.34249754523413
N         1.56752945832134    2.70523279405582    4.13834913145404
O         1.33615439056091    1.90462582935911    5.12675601294018
N        -0.57072968279601    2.54889900146136    2.25034524873644
C        -3.21079751937270    4.35617864453972    5.66921248807617
H        -3.01260943571319    3.61772371072170    6.44138665302265
H        -4.10756208671962    4.07151959552937    5.12087410701663
H        -3.39019963123797    5.32475697911746    6.13227622241818
C        -2.04121003988379    4.43659812276277    4.74474147567767
C        -1.99061799371382    5.36425833892608    3.64679472790275
C        -3.10784723479900    6.30537211455187    3.32375353363679
H        -2.82710551867837    6.88568298588951    2.44735530024682
H        -3.29547497089499    6.98302668906564    4.15546162015525
H        -4.02626219897691    5.75939130066097    3.11205937314194
C         3.91216590512380    3.69694478579946    1.46849655588482
H         3.71241049032517    4.42135064043707    0.68355187379016
H         4.13078171652390    2.72853565480940    1.02169856370831
H         4.78455349819030    4.01446626119110    2.03703872807094
C         2.73114524002436    3.59953416550591    2.37515180160652
C         2.68752564841428    2.67867659121313    3.47966125635353
C         3.81737195121889    1.75896750909350    3.81699453543919
H         3.54114340113464    1.18113417818360    4.69628919471994
H         4.72013716281131    2.32808492136380    4.03172323258928
H         4.02629381511928    1.07731628280898    2.99309034462209
C         1.14958092779288    5.24387777927398    4.87593878489759
H         0.41301437461372    6.00654786660282    5.16802375163288
H         1.40688465987237    4.64862080806331    5.75796512656184
O         2.33559547811552    5.84722351390610    4.46797495271812
C         2.18491904374365    7.09283488023577    3.82605570669692
H         3.16732982938065    7.37346635758469    3.45026588826840
H         1.83507599541310    7.85247913993654    4.53631697600821
H         1.47982266766420    7.04233390069897    2.99354143931301
C        -0.79283467602589    1.30803343926356    2.67513499476692
H        -0.47243901074861    1.06678700099239    3.67920173534842
C        -1.39838307312444    0.34114080377502    1.89318013651112
H        -1.55311294744848   -0.64879009658333    2.29403728216257
C        -1.80117644110855    0.65335218456798    0.60031838022476
C        -1.56190570955025    1.95391372779656    0.16535852700106
H        -1.84992329885386    2.26062856349044   -0.82843386565324
C        -0.95256793032191    2.85842277887597    1.01292274937702
H        -0.77127942249710    3.87133334305967    0.68110497527607
C        -2.45518015922915   -0.34990540667419   -0.29126785675346
H        -2.63399834972657   -1.28385321369111    0.23471580747268
H        -1.82137009732548   -0.55026986611626   -1.15446846252812
H        -3.40374714974760    0.03562390189498   -0.66158348337217

