77
CSD_code = JUJVAL | q = 0 | S = 0 | Stoichiometry = C24H47ClHfSi4 | MND = 12
Hf       -5.71918757688237   10.66990309949087    4.38662540718473
Cl       -7.89641605237864    9.84005272236963    4.02973621460569
Si       -6.18207951301427   11.00106300465741    6.99963730920630
Si       -5.96082543371979    9.29119385277712    8.75729593027658
Si       -8.51652416981640   11.64001623443444    7.27130583279385
Si       -4.86578121219062   12.81316335254601    7.94866302192302
C        -3.06009537610422    9.72098489516573    3.62727495598863
C        -3.73435550482115    9.48654927828500    2.41366382121180
C        -4.92375923310463    8.77943856316329    2.68756387873958
C        -4.97576341615511    8.51564779289425    4.08878643669873
C        -3.81616668596491    9.15041280625501    4.67869567964260
C        -1.72054855374423   10.36706550174605    3.81662811417378
C        -3.24440450371576    9.82660363145775    1.03729075210810
C        -5.86903769622713    8.22344265277719    1.65962573762698
C        -5.85335316363575    7.49910581865162    4.77086504853831
C        -3.29493648783878    8.87977378845722    6.06370062607255
C        -4.59950302756210   12.32276937572957    2.90614738510055
C        -4.83823359384538   12.98649411660707    4.12764580270550
C        -6.23627759161302   13.18354084065534    4.24718367969163
C        -6.85089793257020   12.63131131145195    3.11517277379317
C        -5.85067225348759   12.07088322485596    2.29520776531321
C        -4.16610246325471    9.06959962832375    9.41894265873496
C        -6.98184460967209    9.76201148856215   10.30977072631688
C        -6.58264240732902    7.52422517090324    8.32574459728292
C        -8.82168838972039   12.66827563434732    8.86026440757731
C        -9.29912731073035   12.69761382056972    5.87938816105492
C        -9.59934350537192   10.06508912591311    7.35869775939857
C        -5.38054536210123   14.59149747296504    7.44063991667957
C        -3.01899622015355   12.61699137972020    7.44526975435683
C        -4.85937463650500   12.87352656700681    9.86048216133698
H        -0.93682229147816    9.60922670070642    3.87098171797704
H        -1.47535207876088   11.03701190605513    2.99548860775285
H        -1.69166786973884   10.93785163074586    4.74402180709601
H        -3.04863259761361    8.91317493118167    0.47453818387674
H        -3.97602170619986   10.40949471236024    0.47717578509802
H        -2.31790200577572   10.39335717366281    1.08135703952050
H        -5.65687823998322    7.16767101585909    1.47812797275396
H        -6.90545592219264    8.30609479496206    1.98649501874777
H        -5.76209025934424    8.75054476375712    0.71426640712911
H        -5.25254441847095    6.64997446142528    5.10322598847165
H        -6.37144610139159    7.91713273587026    5.63879162473986
H        -6.60284481769667    7.12392048956287    4.07757791525326
H        -2.42156925437658    8.22676965187783    6.00453265677104
H        -2.98578507912095    9.79015012986869    6.57564373324300
H        -4.04843786224429    8.38230314057973    6.66672031549223
H        -3.63466053860700   12.20591856613581    2.44035498060536
H        -4.08205105001718   13.44131613998925    4.74847581277766
H        -6.72384381793872   13.76927178956014    5.00860805499061
H        -7.89703604208580   12.70729600366055    2.86063614528757
H        -6.00353136753459   11.69699849221519    1.29163588420860
H        -4.16323111606454    8.97144706975931   10.50059417296945
H        -3.68117608977321    8.18606492354579    9.01700819703547
H        -3.54137412419354    9.92153235409404    9.17398941828890
H        -6.82347064917236    9.04975976954796   11.11617822296585
H        -6.70584762386188   10.74105918236516   10.68425423273793
H        -8.04535248130986    9.77901340013671   10.09858739500820
H        -6.79816602106704    6.96083739637649    9.22998785796172
H        -7.49981960516806    7.55895782472832    7.74610542417665
H        -5.85643861150185    6.94938650457655    7.76000289143533
H        -9.87305182173674   12.91512758306877    8.97802209167370
H        -8.51189654521123   12.13381112851629    9.74966177670036
H        -8.27017003936658   13.60254250817946    8.83487375574148
H       -10.36927019908589   12.81110514328110    6.03589909029775
H        -8.87718431564295   13.69655856670619    5.82779233427256
H        -9.16585701441525   12.22468254447298    4.91281248017696
H       -10.64948656227158   10.30609182783284    7.50008799831941
H        -9.51679473039513    9.50380552849655    6.43360767916605
H        -9.30316001117589    9.40854572135918    8.16980601254876
H        -4.92784664507651   15.33387769756695    8.09346766102507
H        -5.09167971635199   14.83932260192823    6.42507718628428
H        -6.45668921981456   14.71612357351340    7.51384543003315
H        -2.46948725428399   13.54846612069781    7.54810205783159
H        -2.52149998383222   11.88309513142194    8.07187210818752
H        -2.91215831016327   12.28857025356396    6.41383145706677
H        -4.19616029511421   13.64913700650771   10.23516555864185
H        -5.85258055272250   13.08488772122261   10.24248861618177
H        -4.53489325741521   11.93286553375139   10.29060692535683

