51
CSD_code = JUJVEP | q = 0 | S = 0 | Stoichiometry = C21H27ClHfSi | MND = 12
Hf        0.61594027797369   11.08275561024755    6.56522026404012
Cl       -1.40373474317107   10.33651856520120    7.49723276322649
Si       -0.47340528636591   11.77008467678520    4.29875966167788
C         0.92713675401573    8.58604926235802    5.36757624651916
C         0.98943222447720    8.47363918425576    6.75922620018491
C         2.05841231588820    9.27336058857808    7.22772238977577
C         2.67183700617647    9.87246045733337    6.08681396489359
C         1.95959899687664    9.44279592041460    4.94749727948765
C         0.13344999879131   13.14583710318433    7.85275100432372
C         0.91856283422873   12.30467243726119    8.69145454568433
C         2.24212687892765   12.26812864821766    8.15772757143110
C         2.25504643688470   13.04406722100219    6.97112750341904
C         0.96019380388797   13.59842742037247    6.78883644967636
C        -1.28032858515084   13.59328997352924    8.09071586453876
C         0.48060399928159   11.74057656120924   10.01602944330299
C         3.46520216704784   11.77550555308291    8.88238690392029
C         3.45238243765810   13.39235218716260    6.13271881856105
C         0.61260511356941   14.67475999389088    5.80190549117094
C        -0.61311850064912    9.77982271244914    2.19798376768589
C        -1.08315633641355    8.63244562396591    1.58468004577636
C        -2.10617285472732    7.90556357917694    2.16897755816341
C        -2.65444364485819    8.33711427259407    3.36597307370370
C        -2.17501801994539    9.48248207563459    3.97402315526590
C        -1.14500895387094   10.22763809079067    3.40308026807871
H         0.32601950245400   12.45739598505258    3.22794065323389
H        -1.67576490356311   12.66820744460853    4.34552636243511
H         0.25483614803719    8.04715947971285    4.72009019913203
H         0.38913089689364    7.81227337691421    7.36608825453366
H         2.48259826107200    9.21932073344164    8.22186025540653
H         3.62944541948538   10.37341084182206    6.06854827664611
H         2.23277915723717    9.64105753615624    3.92199602068720
H        -1.29807531809273   14.64012416441121    8.39991522817153
H        -1.88227816731580   13.50018424916511    7.18439898901713
H        -1.75033221616821   13.00236204743708    8.87246058366386
H         0.54461407652005   12.50428080703307   10.79411839105746
H        -0.55080958163473   11.39288450932771    9.97174360139055
H         1.10646352065900   10.90231528154910   10.31894855346225
H         3.98404109781858   12.62282450901747    9.33588974388030
H         3.20338630674257   11.08861300722179    9.68387034873851
H         4.17085201428782   11.27684280276247    8.21938300315255
H         3.65557499377818   14.46254986235827    6.19144834733370
H         4.33923577925244   12.86744455888918    6.47876380500932
H         3.28899630265977   13.14504844620278    5.08129324323933
H         0.90727666712067   15.64803805907832    6.20105284560622
H         1.13221762651020   14.53291148572921    4.85669177411462
H        -0.45642158415644   14.70576267394644    5.60759302098867
H         0.18310114804599   10.34377396027328    1.73196898684455
H        -0.65200370801516    8.30336880943626    0.64948308579285
H        -2.47478033575055    7.00739204862913    1.69457393485726
H        -3.45376101647839    7.77487908486403    3.82775819957146
H        -2.60618640791152    9.80462651627288    4.91257405752186

