97
CSD_code = JUJXOB | q = 0 | S = 0 | Stoichiometry = C50H42ClP3Ru | MND = 5
Ru        3.53814822648718    7.79779194975868    4.26555438272825
Cl        3.73820252983892    5.48495545647472    4.44015519744149
P         1.35328549337985    7.64117787158467    4.81181263487666
P         5.73419839620572    8.02954625418722    4.75544397027786
P         3.53747689731489    9.24302767370411    2.56223745809709
C         3.35720925887480    9.51659897559666    5.41208947482153
C         1.28169686470779    6.77157237041758    6.41441914575362
C         1.57068647673586    7.42363249156116    7.61070850445213
H         1.76318822515779    8.48766325513188    7.62021714503727
C         1.62417427134247    6.70839195452386    8.79422011868452
H         1.84784052271501    7.22291383098203    9.71850872103701
C         1.40203992330792    5.34171464758782    8.79590290002409
H         1.45132377180521    4.78583915558807    9.72129503336708
C         1.12342880784178    4.68697210217823    7.60696354225655
H         0.95803117319177    3.61930411833922    7.60288742731313
C         1.06485519048175    5.39497061605044    6.42206222383382
H         0.86116878405608    4.88072614244978    5.49258167628956
C        -0.07103204109540    6.88542011994219    3.96753612716160
C        -1.38352768782988    7.27673922391516    4.19838475000252
H        -1.59810099143840    8.06995475567597    4.89973144607814
C        -2.41593028911041    6.64697730707817    3.52632667769692
H        -3.43725214498595    6.95301356016953    3.70291517145598
C        -2.14566323529583    5.62523210804572    2.63026156226932
H        -2.95658741497825    5.13732172901833    2.10917965682582
C        -0.83776214416664    5.22835442253612    2.40152677343558
H        -0.62809963845607    4.43049026974555    1.70394566452650
C         0.19741016130985    5.85911328068677    3.06559858342848
H         1.22780642932798    5.56609438970626    2.89535332367697
C         0.85286454219066    9.35420589551380    5.23854390290733
H         0.51373324529748    9.84137582055868    4.31582383119011
H         0.03938327805722    9.38005793058258    5.97079866878188
C         2.09803125837621   10.02275444676445    5.76873012991298
C         1.98171014340180   11.11321411873716    6.61936872171260
H         0.99866573203596   11.48639788176591    6.87588108339310
C         3.11012115880058   11.71609641700539    7.14664592838663
H         3.01530042791284   12.56208163241345    7.81125897684831
C         4.35764423148523   11.21772873586742    6.82195897634030
H         5.24667914343363   11.67377469232389    7.23683300001831
C         4.48698290140796   10.13655144274542    5.95965291384160
C         5.87310373758467    9.66066087976411    5.60118507356115
H         6.50532135719846    9.57724112571385    6.49287267571854
H         6.33912939666080   10.37195674396558    4.91056448227712
C         7.21472314553081    7.91831389876705    3.70952450975098
C         7.14086899392150    7.05599544288614    2.61957085329056
H         6.23263053569269    6.48733469380331    2.46393657115921
C         8.20968280227653    6.93436484370409    1.75179662428423
H         8.14535023601792    6.26833374326116    0.90356831204773
C         9.36043506524987    7.67483238871507    1.97010450391777
H        10.19578928379843    7.58836328364054    1.29047323074705
C         9.44340376967206    8.52459716881268    3.06176132500921
H        10.34581765337785    9.09390340850676    3.23390462732049
C         8.37621564565201    8.64898978806176    3.93312216556549
H         8.44877096640295    9.30951881073457    4.78509602923514
C         6.10781881760420    6.89365786308547    6.12694240327899
C         5.13759093148676    6.81992873024967    7.12564754686356
H         4.25187147803642    7.44903772799429    7.05812629196402
C         5.28928673867953    5.94083202395517    8.17832753568289
H         4.52660669758924    5.87799240603415    8.94133220753379
C         6.41059705199285    5.12655949217651    8.23959120427390
H         6.52623012056698    4.42910648825283    9.05655990767445
C         7.37486823408357    5.19634510379821    7.24904641770626
H         8.24325602522956    4.55464929472815    7.29441108016891
C         7.22703744334783    6.07518479909358    6.18866507325076
H         7.97243456221738    6.11650154060025    5.40601682963906
C         2.00090510324399   10.01210872354742    1.93402254635647
C         0.95646868305745    9.10795958579090    1.75562917642496
H         1.12876721795167    8.06845196616223    2.01127447982194
C        -0.26404749238769    9.52330753558404    1.26327188359555
H        -1.06831713248149    8.81234353792685    1.13969235547154
C        -0.44816729232544   10.85714197840879    0.93095892615271
H        -1.40143684949283   11.19377420597123    0.55066685874671
C         0.59554088715046   11.75535565340828    1.07565508591738
H         0.45574477342207   12.79088362704925    0.80013599215412
C         1.82183300637226   11.33975845730956    1.56899022203074
H         2.63046089675235   12.04934607060785    1.66292825325246
C         4.71364123501645   10.62671410703715    2.63422527081954
C         5.99025320456923   10.51166948806301    2.09074126247172
H         6.25316948828777    9.63346192378563    1.51678893527641
C         6.92120495950835   11.51638530071669    2.28484358671328
H         7.90977162532309   11.42017526817795    1.85916871125785
C         6.59129471031933   12.63635792152914    3.03139553622118
H         7.32142793886026   13.41788120430572    3.18405035621355
C         5.32705252284065   12.74892638588737    3.58959251717678
H         5.07267366601669   13.61525998147414    4.18286235508130
C         4.39361877477300   11.74699387642985    3.40080873502812
H         3.41653846035373   11.81752852032060    3.85886513534841
C         3.98648590556885    8.39666430151726    1.00594482382958
C         4.21925224875330    9.09614043947910   -0.17446775477658
H         4.17201233985012   10.17697596546227   -0.17441502975426
C         4.51300597192392    8.40401895813493   -1.33394101099666
H         4.70234005784435    8.94447211995463   -2.25034252809822
C         4.56150294781626    7.01775593033809   -1.32619308333087
H         4.79271796627947    6.48346361557502   -2.23637181403846
C         4.30642163924183    6.31891007613292   -0.15826314874771
H         4.33427471652569    5.23878427463596   -0.15504911894352
C         4.01511369129404    7.00835224818453    1.00553702904491
H         3.80680155881809    6.47862601385772    1.93413054613639

