45
CSD_code = JUKGUR | q = 1 | S = 0 | Stoichiometry = C12H24Cl2O6Sc(1+) | MND = 7
Sc       -1.46968799210925    3.50794891265817   10.93715408381797
Cl       -0.09473643699679    5.06985176146584    9.98776839489207
Cl       -2.96751217856405    1.95747672517604   11.69526791716221
O        -0.05268275987295    2.71734712627744   12.44179984441668
O        -0.15967403969189    1.90719109796991    9.98735158167585
O        -2.13105970860709    3.09621212527020    8.74661779476876
O        -3.33242093715154    4.70919475957287   10.35468361567824
O        -1.97489935773056    5.01479205044795   12.61593103097998
O         0.71406356142537    4.88424658325292   14.01562918696669
C         0.97692817920686    1.80749509177765   12.04908133044494
C         1.15624082135136    1.94589220960183   10.53978347407790
C        -0.18206916219486    1.80729759966330    8.56454279570195
C        -1.65237741846937    1.88767354856061    8.16580693618532
C        -3.46532086323357    3.43765244827268    8.38365802440289
C        -3.71291773240970    4.81942183446396    8.98625384864988
C        -3.76851430372798    5.77119319814614   11.19589500458225
C        -3.36920158203957    5.31896339367188   12.60355400238481
C        -1.11893013702331    6.11494415314717   12.99993744182603
C        -0.34872638482137    5.77787869639410   14.28156550614393
C         0.65016312390594    3.61037841935521   14.60250371418853
C        -0.31391641551851    2.67738049150673   13.85186411255366
H         0.65530484608615    0.78417257468112   12.29448286750252
H         1.91765833225744    2.03916340944602   12.56136861274807
H         1.63700045637375    2.90433300215408   10.29127042063820
H         1.75706318285209    1.11455907761038   10.15011087911051
H         0.26160313135782    0.85613190543767    8.24403205180898
H         0.37013652363604    2.65049669721634    8.12453202475373
H        -1.75543606397521    1.91915981122252    7.07392322038411
H        -2.20818882486397    1.02958531931980    8.57229425474178
H        -4.16549307552143    2.70570788706824    8.81205825841673
H        -3.57029631373403    3.46553686574601    7.29201570750249
H        -3.08828618703275    5.57352704848540    8.48568934921644
H        -4.77197333744069    5.09067993546639    8.90224533763404
H        -4.85605058810779    5.89920993473088   11.12134370067152
H        -3.26127834384985    6.70714020542338   10.91747025967306
H        -3.61869709086628    6.07365625395189   13.35552940505465
H        -3.89128079622179    4.37916934737295   12.83014092248851
H        -1.71366811910401    7.01782019072933   13.15336843414435
H        -0.39237380290300    6.28635168441794   12.19765061474737
H         0.09587902961937    6.70489655093871   14.66243725259688
H        -1.02869353057565    5.37250209749369   15.03974530324518
H         0.35302285946764    3.66242724511785   15.65818773722889
H         1.67240498458093    3.22780964020415   14.54839103930376
H        -0.22950044500772    1.65127174627953   14.22614561412129
H        -1.35010510275443    3.01215934283322   13.97671709076628

