52
CSD_code = JUKQOX | q = 1 | S = 0 | Stoichiometry = C22H19N8NiS2(1+) | MND = 6
Ni        1.34382542228550    1.46505558383820   20.90570022290334
S        -0.32515823084878   -0.53428835682773   20.37399787520107
S         2.62273721427661    1.34349608255758   18.89744758700363
N         2.62062953683132    0.37485092506468   21.58338914894178
C         0.21416559053701    3.67603917718810   19.72069193325135
N        -0.95758570094782    1.79027450508989   19.26533491687624
C        -0.49305185910744    1.83490187412966   23.57011911818943
N         0.57453818888294    1.31916495863400   22.92471332777332
N         3.67719355845547   -0.01747378794466   20.92078576143934
N         2.00537941046127    3.62533269213189   21.24622166276371
C         3.80485909706963    0.37148273901980   19.66982432435206
C         1.27923852778283    0.34895326883630   23.51230394787679
N         0.03541769351768    2.41466976927591   19.92118786685797
C         3.78722322911322    3.43182217898913   22.81075470477258
C        -1.19877105551998    0.44912098431383   19.36771323935830
C         3.03256383706992    4.20005348477270   21.89850703140425
N         4.88084264177940   -0.00758326999198   18.97536762617033
C        -0.91404549162696    1.32973615256200   24.83530811264037
C         2.40853897126666   -0.12039329625755   22.76944280156660
N        -2.20616328038486   -0.03578211032803   18.62621823564008
C         1.28938714394297    4.35885927288790   20.39879380007738
C         4.47006914075688    6.11108766350531   22.40500023085614
C         5.18513246076447    5.33631689999085   23.27636320821562
C         1.55728415091542    5.72201089620952   20.14674773954051
C         0.93950213492261   -0.18715571347213   24.77477188030521
C        -1.21549826798242    2.90506135490677   23.00358119311445
C         3.37940283713621    5.56921718395702   21.69762050207571
C        -2.30875140922511    3.42685788673713   23.63756271728164
C        -0.16130520357372    0.29009104639936   25.42243605956893
C         4.83867920069806    3.98935736806865   23.48134149212611
C         2.60223261804362    6.32055968483809   20.79229429129930
C        -2.73781480470395    2.90819205189405   24.86898902769164
C        -2.04886280663376    1.88371269165530   25.45758819818306
H         3.50430470373861    2.39981413127959   22.95601093590633
H        -0.86813620660399    3.31171215553366   22.06775974564066
H         3.08646415683025   -0.86653928851406   23.16554635975594
H        -0.41969213062981    4.23215331703816   19.03233870958845
H         5.41413122000547    3.39717507804063   24.17634421023277
H         0.94375013359373    6.26546662293584   19.44567908630930
H         1.54782229973629   -0.97265755095242   25.19275086855279
H        -2.84979262437616    4.24948539946684   23.19442661924830
H        -0.46501938057082   -0.10738864629161   26.37934393169330
H         5.56128603000215   -0.61597807906576   19.39745660166448
H         4.96708130901587    0.24365087117402   18.00598967911831
H        -2.35957906387000    1.48530138167244   26.41174240245708
H         6.02141994386395    5.75463411658130   23.81482100222724
H        -3.60672922666113    3.32966687333479   25.34967448483461
H         4.72908018977626    7.14691491729215   22.24430651223021
H         2.84254067200447    7.35934340264933   20.62106662069585
H        -1.50576553003153    2.34149129685686   18.60255712059008
H        -2.72013584109880    0.51774549183044   17.96131733406930
H        -2.38766515068127   -1.02449333349824   18.66834798986693

