74
CSD_code = JUKRIQ | q = 0 | S = 0 | Stoichiometry = C39H29N3O2Ti | MND = 5
Ti       -2.51390981145521   -1.42828357863707    5.08301384905910
O        -2.66694952199915   -2.41885444336937    6.55309931555277
O        -1.75610712652058   -2.62219104169888    4.01401696990319
N        -3.68457345489972   -0.08852447303099    5.84782416332827
N        -3.75860470992548   -0.94966128156541    3.43408286892595
N        -1.50499156928727   -0.00689507186227    5.58333500678718
C        -2.59686881308866   -1.83947000878451    7.73988906994143
C        -2.64048509662749   -2.60679404883754    8.90978799750544
C        -2.54337582264655   -2.00936933000695   10.15071727531791
C        -2.40568055669197   -0.63591150682929   10.26145636001858
C        -2.37382431877693    0.14254926167125    9.11618765396307
C        -2.46161844442614   -0.43780216092005    7.86293193040258
C        -2.51344425515889    0.36723787166929    6.58619771442835
C        -4.30408792282199    0.73771802002789    4.97775360300451
C        -4.79451281475185    2.02422923909114    5.26047729414642
C        -5.54718262039031    2.69624556991189    4.32514565301909
C        -5.81858225524534    2.12599822670188    3.08305566899844
C        -5.29865908229234    0.89144107657928    2.75315839364784
C        -4.50978817295250    0.19654113013851    3.67272204270409
C        -3.82009142102409   -1.60849301557847    2.31894766981684
C        -2.91957853543337   -2.65266026658721    1.93978078465521
C        -3.02496212273112   -3.22406739469425    0.66200514350966
C        -2.13619083227342   -4.17816574439024    0.22681768682255
C        -1.10187377558589   -4.58894385959160    1.06508924366673
C        -0.97414694501963   -4.05738990377487    2.32733841644447
C        -1.87903868177635   -3.09412447508105    2.80780578318002
C        -0.06825139434391    0.11819976388434    5.71250121655783
C         0.52058178482046   -0.41201369679363    4.39874761991912
C         1.77304860527269   -1.01323016055950    4.35656568399335
C         2.28287012933312   -1.49415041651933    3.16251887596446
C         1.55415888546549   -1.37267610559087    1.99249437050971
C         0.32296400126152   -0.73877466880932    2.01715205067344
C        -0.18828892944545   -0.25148388500080    3.20868959936669
C         0.35018515519278   -0.73958359160456    6.89966945146212
C         0.63662515551230   -0.20205471085945    8.14791499792917
C         0.89374713015039   -1.03120456571219    9.22693271645197
C         0.85603114453769   -2.40470815948561    9.07551895159891
C         0.54868516577026   -2.94978706408677    7.83892853410998
C         0.29019822971850   -2.12670631981977    6.75823293104505
C         0.39250224002591    1.57083564978018    5.76405649820928
C         1.67800695654106    1.90321380464279    6.17615174107064
C         2.09922678378293    3.22093395247223    6.16440687830638
C         1.24842555467548    4.22235743849670    5.72828117095242
C        -0.02038921892177    3.89445745204600    5.28327620228798
C        -0.44209088072940    2.57660155481567    5.29203716164647
H        -2.74809958042906   -3.67807740869365    8.81331411749376
H        -2.57706586508589   -2.62170913856405   11.04014186855158
H        -2.33207218221321   -0.17213609329816   11.23327220862719
H        -2.27824889500630    1.21714747846332    9.19560178889682
H        -2.51256446578594    1.45427796340745    6.80077226050417
H        -4.60939125573363    2.45613954312939    6.23364317038730
H        -5.94189481442817    3.67478764812717    4.55757940777154
H        -6.42297057141803    2.66157617957200    2.36683171948784
H        -5.48695656577673    0.49143773232061    1.76701890177828
H        -4.56975668043343   -1.34658179454042    1.56626369282995
H        -3.82148709356003   -2.89100113823258    0.01069102365616
H        -2.23391768498075   -4.60302007303032   -0.76032831303898
H        -0.39653752785934   -5.33143724533534    0.72193974106494
H        -0.17618008664187   -4.36757290774538    2.98726764226394
H         2.34866621554289   -1.12232622819806    5.26431977422899
H         3.25220865590109   -1.97058995534041    3.14925261423686
H         1.94543983076067   -1.76200608806593    1.06452262346973
H        -0.24161321545807   -0.62127626251712    1.10296691963509
H        -1.14005238118422    0.27810128356225    3.21437970592871
H         0.64730863276730    0.86912474005225    8.28554914544086
H         1.11447446115613   -0.59827240072700   10.19126985912316
H         1.05316415917093   -3.04906260800057    9.91919595897190
H         0.50388037625332   -4.02237990681224    7.71798081030170
H         0.03421239463865   -2.55917404311611    5.79357961258777
H         2.35409637113225    1.12812284886823    6.50467289031205
H         3.09863594508239    3.46607454450513    6.49319958639016
H         1.57740299540174    5.25099290744014    5.72381757478419
H        -0.68443940731370    4.66638751357825    4.92241635236816
H        -1.42584957897229    2.31976784738087    4.92065313149039

