58
CSD_code = JUKSOZ | q = 0 | S = 0 | Stoichiometry = C23H23N4O6ReS | MND = 6
Re        8.24870674742036   18.86597036404052    8.72283483585681
O         9.03799138171803   19.94631708660276    7.75282196549665
S         9.01831931751106   19.66309715270836   10.83938784559517
C         7.66981272722996   20.62342151189809   11.39577287043847
N         6.91912299988334   21.35117913526573   10.60403334967903
C         6.48433265920673   21.19222261154508    9.38142886914715
N         6.50555846762114   20.02863930623529    8.71181896316099
C         5.89910228900065   22.39529028426169    8.75895874892908
C         5.30415541421492   23.38835737313669    9.53292814933236
H         5.23934813332673   23.25542050173061   10.60153561028031
C         4.79234362685475   24.52398407576344    8.93455740456015
H         4.32464720630519   25.28595922011017    9.53990982618510
C         4.87941049367064   24.68614241746985    7.56132479884323
H         4.47853879315585   25.57362678028234    7.09531286555341
C         5.49090839407510   23.71228367705228    6.78801343063246
H         5.57614796715937   23.84497355899018    5.72014287339534
C         5.99861030750423   22.57208423136316    7.38016531852908
H         6.50198009008662   21.82561936327258    6.78514115459193
N         7.45800931108994   20.70627195422914   12.71071948542631
C         6.44037478667229   21.56949670952617   13.27438848374911
H         5.79382954902955   21.93595020638899   12.48033034743613
H         5.85546020624003   20.99113406511586   13.99596307010621
C         7.13528155737640   22.73520440354319   13.99381816911572
H         7.67410086626626   23.34152959490291   13.25045545979324
H         6.40614876228735   23.35771760696560   14.51456482295281
O         8.02381353403100   22.26342668671997   14.97668512398716
C         9.01039874175679   21.42430140723082   14.42051612930484
H         9.63801547722850   21.10002144124011   15.25099945992615
H         9.61920155232617   21.98067085323199   13.69338123765845
C         8.37043488543262   20.21755907691995   13.72012068714142
H         9.13294990761242   19.59021664674262   13.26347020089927
H         7.79767506752665   19.63688584583446   14.45009864777457
C         5.40346924064231   19.69443753057028    7.91942195802800
C         4.13735819233126   20.03625628648531    8.41331100094535
H         4.08022454598107   20.54834322581674    9.36224614359706
C         2.97983290896311   19.71769873777250    7.73729152098374
H         2.02380777312928   19.99768312490608    8.15168637110205
C         3.05199967258216   19.02305095323393    6.54311509188842
H         2.15636159380772   18.75741269246326    6.00431360483197
C         4.29113541153320   18.65279559574157    6.05666871311860
H         4.34607125769731   18.10139981484025    5.12823971612533
C         5.47360553033561   18.97161254504621    6.71458347317023
C         6.76777551446333   18.51576101572021    6.08407291858346
H         7.41293210792028   19.37656186770976    5.87355098029755
H         6.54442288112329   18.00948552960650    5.13521140562473
N         7.51661445955939   17.61298706097833    6.96743278847623
C         8.79531380469137   17.16547479091034    6.41786108545788
H         9.32173220287720   18.02074520042461    5.98121634158574
H         8.66936641154478   16.38588888298998    5.65891168078107
C         9.69013408679858   16.63059146833567    7.59209542585962
O        10.35187289972153   15.63243109587409    7.42780158463567
O         9.64417676204188   17.32695627691086    8.66285292993211
C         6.71298283882346   16.49893261188724    7.44929840967792
H         7.27471326111224   15.56130967500483    7.40222493223852
H         5.77857480920123   16.38036687026061    6.89668622137429
C         6.35702451372608   16.69814119876333    8.96383508511604
O         5.48145120691138   16.04984588221732    9.47552992057176
O         7.09991489165737   17.58215491521380    9.51284049051940

