76
CSD_code = JUKTUG | q = 1 | S = 0 | Stoichiometry = C26H40BIrN7O(1+) | MND = 6
Ir        0.26386284998657    0.18848345645224    5.23120397032978
O        -0.88196466020483    1.96472243494448    5.03269808597541
N         1.48645177784261   -2.24579000787350    4.25398462003865
N        -1.14022178786379   -0.93197112722234    3.95729146228856
C        -2.46111799180863   -1.05408835544756    3.87018994164460
C         0.03717112794164    3.97570695707117    8.18255884660326
H        -0.98736966967157    4.31834550761232    8.30351676377063
H         0.51921233754386    4.56454798665266    7.40458313046499
H         0.56687685941258    4.16643379155790    9.11453383155565
C         1.85341319173398   -2.20215953399763    6.39964827439137
N         1.48192476768689   -0.37387753832197    2.62943979116165
C         1.86339483393084   -1.77085057928878    7.82284197185437
H         1.62339341720099   -0.71664604551877    7.91487633762933
H         2.84685822111078   -1.95530091995367    8.24878070983533
H         1.14228406361173   -2.35325984551581    8.39561313564353
C        -2.76862749013129   -1.93232714979039    2.82767453973625
H        -3.74351598518396   -2.23521086691958    2.50631968059404
N        -0.80324960374702   -0.29905838756723    6.86556644730975
H        -1.09580378837068   -1.27649466212781    6.87734143279326
C         2.52849545617696   -4.40522777940799    3.53957592057560
H         1.64508366688804   -4.81867877661509    3.05750752636346
H         3.06632224732218   -5.20882628655159    4.03405202830561
H         3.16591773982755   -3.97797799792719    2.76849593792349
C        -1.28774988452739   -3.25631561074852    1.17547436075354
H        -2.23099570130877   -3.60567900431467    0.76549631296570
H        -0.71084791881324   -4.11628048607934    1.51029899622925
H        -0.72448985379945   -2.75880420956404    0.38824908007785
N        -0.58744695179764   -1.70575286999276    3.00723527655665
N         1.35382252802308    0.60013306130776    3.55136219219654
C        -1.55141758453303   -2.32850734069973    2.30306396119593
C         0.08499586559306    2.51724596295750    7.83609994911181
C        -1.03084208664876    1.78534990130539    8.04663080371311
H        -1.86715665547003    2.29667643436635    8.50948437703093
N         1.30380949383584   -1.52850908578127    5.38329683521331
B         0.93867301022561   -1.78790956560812    2.88752488208796
H         1.25931700524801   -2.52633840642672    2.03312773341745
C        -3.41336926078098   -0.34481205227068    4.76689831551548
H        -3.92640645493658   -1.06037781968353    5.40917161297816
H        -4.17022916760645    0.16925134074680    4.17635983062582
H        -2.89341380938703    0.37760822142795    5.39056447916599
C         2.40258680850922   -3.38221746730304    5.90071732758928
H         2.91602619043158   -4.13578080571951    6.46080446731692
C         2.15900349770256    0.09179298595906    1.56564467289491
C        -1.41594848876961    2.23183179068839    2.70148085191943
H        -0.65052057951297    2.82710108086332    2.20336549357805
H        -2.36877678189415    2.45343839797749    2.22828555311143
H        -1.16829245451153    1.18262754963984    2.56863521796119
C         2.15200510370421   -3.37690855983787    4.54054344718077
C         2.47569046640495   -0.71350808116902    0.36046345256860
H         3.10669968129447   -1.56137197376167    0.61905347669690
H         3.00061763959940   -0.09410405183732   -0.36091379383407
H         1.56713827916313   -1.09711820512526   -0.09928047621104
C         1.59898000463963    1.13614009672209    6.41941369641344
H         2.64491572938487    0.91797132833454    6.20833089891424
C         2.57470615436515    2.62737763041069    8.12229384311298
H         2.72099012223174    3.66443662035626    7.82660828420275
H         3.48123035709605    2.07822492771407    7.88478268626874
H         2.42595262936192    2.59679965028459    9.19990312486739
C        -1.44011649214818    2.59822453216363    4.14964224207627
C         2.47612438254981    1.41397983672513    1.82051373447238
H         3.01685736571114    2.08392203279829    1.18472589784177
C         2.06660171749148    2.98119173490668    3.82399369624798
H         1.41013146476579    2.99068101054008    4.68878144822934
H         1.82709779276673    3.81486580114741    3.16624723206097
H         3.09022093394114    3.11741495729649    4.17018057835824
C        -2.21793908059043   -0.25072282151220    8.82915981541959
H        -2.27515209848473   -1.32842065579920    8.69241272846225
H        -3.21623778573530    0.16825528934705    8.70753821191360
H        -1.89662995285062   -0.03739380033407    9.84667456383020
C         1.39130414170135    2.01442347092321    7.40411777571468
C        -1.27903464827579    0.38206129555616    7.84627415818761
C         1.95741327061089    1.69499278292984    3.08499094408973
C        -2.20520089526624    3.83848486784431    4.49929643782231
H        -2.01707043668575    4.12446845729097    5.53055193928652
H        -3.27076394342849    3.65081523596260    4.37327316321302
H        -1.93575424982746    4.65185031283741    3.83005982260042

