72
CSD_code = JUKVAO | q = 1 | S = 0 | Stoichiometry = C25H37BIrN8(1+) | MND = 6
Ir        1.81560768668609    3.08484054723966    4.59751762840522
N         3.06727992168223    3.17560529834279    7.25452435919722
N         0.47190991871819    3.84326389274419    5.92861128838722
N         3.15931435517171    2.43624241594784    3.42006333128028
N         3.07866108882514    5.39157204484158    6.12689941020105
C        -0.44650042916067   -0.57185093919058    3.45944160567255
H         0.16147200492394   -1.46214798748377    3.31040677552198
H        -1.24729505302336   -0.57807559718060    2.72259076179045
H        -0.88870941161797   -0.62815472147591    4.44986618322505
N         2.86689718722556    2.35275189738446    6.20743244279109
C         3.79287248761312    6.53185051986867    6.14276205829214
C         4.22488292842233    3.17029313803021    9.47081391505007
H         4.80661046962821    4.07388373160467    9.30051431823928
H         4.82992819317768    2.46331776021807   10.03096518720768
H         3.35429579586193    3.43638289519021   10.06684869652064
N         0.96109436127576    4.46246579951907    7.02395010136683
C         0.42347876905418    3.49100261263577    1.90889267687299
C         3.81382765305033    2.55660587452584    8.18395563496943
N         2.90230022012989    4.97780994403571    4.86123635921303
C         1.22413119444405   -0.18781802881373    1.13392561810782
H         1.87344030312650   -0.84947355873349    1.70339202191067
H         1.73933053835953    0.12549573076827    0.22972113444135
H         0.34662276616378   -0.76166360603806    0.84015260671994
C         0.38546057561221    0.68524966636021    3.33117722569663
C        -1.23082794699266    4.61307297567483    7.12660011062342
H        -2.22647203710822    4.83859365480057    7.44770593492707
N         0.72921504728826    3.88461870137870    3.09340453163483
H         0.39157296755557    4.82323038778959    3.30864826807225
C         0.12169914938494    5.67469492796552    9.04563650460355
H         0.64830855623467    5.06359385039540    9.77567418732259
H        -0.85411688666866    5.93541459003465    9.44509079800662
H         0.69385030327604    6.58761876655784    8.89295914869384
C         4.16946107854547    7.26020513568134    7.37965595471177
H         3.28368100560104    7.57391755462751    7.92880809316263
H         4.74989603611773    8.14058138511165    7.11895712356977
H         4.76552284555088    6.62729033457506    8.03431885478601
C         3.50081124696377    5.85000423229714    4.05583392860684
C         4.10022617495970    1.28842261487091    7.71121894182177
H         4.67191122872677    0.52848156462861    8.20209754740940
C        -0.05029601239967    4.93873207720503    7.76882716662212
C         3.50154358852635    0.01706538645609    5.55785440358461
H         2.77329005587450    0.13011882127212    4.76042633995075
H         3.27229603557054   -0.88046811099723    6.12825377477391
H         4.49348410739371   -0.10828528598188    5.12505678086298
C        -0.29945616373471    4.39825988373236    0.96157800728845
H        -0.62861262983855    5.31131071154150    1.45255695124798
H        -1.16403569722238    3.88829945676962    0.54088072690428
H         0.35565210777380    4.66527064953623    0.13322512889281
C         3.48497184600131    1.19702286975503    6.46340663606552
C         0.71604802357202    1.38365851812945    4.42149494905722
H         0.33650403526408    0.98342789850474    5.36059624411172
C         4.08201679874969    6.85717073369031    4.82973591409954
H         4.63456169241584    7.70335612180230    4.47722591858039
C        -1.79934853057904    3.38249997098783    4.95094322931358
H        -2.19036673397638    4.19120549995035    4.33338338559620
H        -2.64434309626336    2.91468899714402    5.45111489885295
H        -1.31233385459522    2.65191177738974    4.31310007499750
C         0.82639260188134    0.99320485418270    1.96717649872026
C        -0.86206999974905    3.92403589272442    5.97220070905574
C         3.51062861821764    5.74053180719732    2.57165924901662
H         3.05826408962565    4.80747508775561    2.24688107782681
H         4.53390205037239    5.78847856253809    2.20289933689046
H         2.96260171936320    6.57385050007044    2.13260072659935
C         0.80531177117468    2.20718193537145    1.37532008176744
H         1.01937798288593    2.23729968831894    0.31330934462247
B         2.47207933362350    4.59233983864759    7.28597268642241
H         2.67870391272773    5.11463237149476    8.31698754567307
C         4.08277311716215    2.10842570477075    2.81554829706879
C         5.20887231650693    1.68842023398047    2.04666782933444
H         5.21344564740388    2.20002241851908    1.08418547304776
H         5.16173433258115    0.61243338598858    1.87849993509697
H         6.12915463890384    1.92693173482324    2.58005940902166

