68
CSD_code = JULFUT | q = 0 | S = 0 | Stoichiometry = C29H35N2PPt | MND = 4
Pt        2.48545740307928    1.66197088948527    6.12701806258059
P         2.31297374306920    1.31523658696267    3.83238287529312
N         5.00774680153857    0.03237598294618    6.42896933603328
C         4.56294038954082    1.29248103636287    6.24189120007681
N         5.67061947409257    2.05132832190789    6.11842163738261
C         6.37598144699186    0.00186645456713    6.42222153208559
H         6.94340595616852   -0.89606250464216    6.55368393132293
C         6.79492195052970    1.27312587484567    6.22457822353919
H         7.78706324557966    1.66885603769624    6.15386076824523
C         4.11515415918073   -1.07824251221811    6.68551405541977
H         3.10293835748479   -0.69499374597159    6.44621564718934
C         6.33347917043643    3.91863582305548    4.67411352159978
H         5.87227758493711    3.43854574215919    3.81412357084540
H         7.39061823364107    3.66196043647849    4.69682720875072
H         6.24121697032833    4.99367095502248    4.54832094049203
C         5.63805440180814    3.48870852212210    5.96282318530999
H         4.57167983646491    3.74718877094740    5.90262582587926
C         4.16802003011493   -1.45168078888371    8.16634289937312
H         3.44945799872585   -2.23830222996529    8.37737450107058
H         3.92379473993249   -0.58465661216457    8.77645547214157
H         5.16165760301128   -1.80368654512439    8.43955833186780
C         4.43801851833324   -2.26951038617414    5.79062854968677
H         3.67352895230362   -3.03228033629136    5.90883666969625
H         5.39956166808459   -2.70648046752375    6.05394985476315
H         4.46463649512558   -1.96651250345569    4.74699801694680
C         6.24992070444003    4.16562749623515    7.18790660382334
H         7.30873842499036    3.93049000085296    7.27471017904025
H         5.74235668622059    3.83102944648577    8.08955970968587
H         6.14042441822767    5.24348040630632    7.10813996589314
C         0.76874744988936    1.19044699495025    2.84779878992117
C         0.76421418509834    1.21093562416808    1.45670060037641
H         1.69659679296362    1.26409851314039    0.91333106642212
C        -0.43250100334795    1.15536904533623    0.76807159061921
H        -0.43187954399434    1.17043266030367   -0.31272517090864
C        -1.63284666002962    1.08183534287661    1.45826242784902
H        -2.56545171374069    1.03893762077326    0.91433610211860
C        -1.63400331321542    1.06260362899478    2.84226061509553
H        -2.56805443731915    1.00435477709827    3.38240250156031
C        -0.43638521802511    1.11840045398399    3.53333616799969
H        -0.41909628720822    1.10832969831206    4.61452852924378
C         3.37344117929859    0.11498116537189    2.96173569389577
C         2.85523989761542   -1.05794971232277    2.41990581535186
H         1.78567591681185   -1.21735063692418    2.41847270952978
C         3.69970941291943   -2.01176815598468    1.88068508881715
H         3.28693693698262   -2.91398850311821    1.45242974170688
C         5.07132663804527   -1.81583276254522    1.89020863426881
H         5.72857433482401   -2.56127962670916    1.46704003611182
C         5.59823087843363   -0.66360297789201    2.45409152490580
H         6.66831208023448   -0.51229224901080    2.47664295766825
C         4.75592206329340    0.28914658384778    2.99300935351630
H         5.16349172134937    1.18279318878457    3.44563093690692
C         3.57665509663327    3.09141508133600    1.96926649446640
H         3.80195330331864    2.24244055224661    1.33865935803314
C         3.96807889540193    4.35959295532591    1.57598507142171
H         4.48296191592861    4.49307574130720    0.63496451208434
C         3.70400693277168    5.45557995258733    2.38064423242303
H         4.01171425252171    6.44222732758337    2.06572005558935
C         3.05160687462194    5.28293180260961    3.59103103347200
H         2.85096554912892    6.13549775235791    4.22387655464194
C         2.66211497644792    4.01739949448509    3.98694034235415
H         2.15759059096671    3.85508268907262    4.93995973360920
C         0.64619514980255    2.08668699500682    6.99344374846463
H         0.12094792189370    2.97183491689352    6.63440802018407
H        -0.01912972693957    1.23402359030168    7.13670326416928
C         1.70228341878432    2.26735358719605    7.94137371552591
H         1.79908165551150    1.54473880020412    8.75264419172769
H         1.95933127081981    3.28267866116169    8.24637384603458
C         2.91769524719506    2.91176927488560    3.17939783680576

