55
CSD_code = JULFOL | q = 0 | S = 0 | Stoichiometry = C24H24Cl3RhS3 | MND = 6
Rh        4.40469469944416    4.73302189058411    4.20902877906871
Cl        2.22689418153891    5.35723725963725    4.75117567905793
Cl        3.71763134889478    4.01717034031023    2.13690736158373
Cl        6.61126142502345    4.16482924701534    3.74821950781632
S         4.99664528239726    5.67765818914037    6.37905385577385
S         4.87537520607145    6.70891042812463    3.02531771346547
S         4.14816675304073    2.55910895845220    5.15112288270580
C         4.30688679247357    4.53430297573863    7.53737999647227
C         5.24614677715447    3.62132202087750    8.01198925496145
C         4.84621699533009    2.66345429409329    8.92403392940986
C         3.52678310139552    2.63271861680980    9.35287698657430
C         2.60708678863323    3.55058708790074    8.87280177059323
C         2.99069831133118    4.51874698752293    7.95759290912186
C         6.60594222593407    3.77313643476515    7.40304062844555
C         6.69227254629775    5.18696866878086    6.84264605129269
C         5.83904530480945    7.67865229204339    4.14447217542805
C         5.07560691535101    8.61199606263175    4.84306164611880
C         5.70292740474265    9.44249209011127    5.75218370780876
C         7.07326827415067    9.33657181838447    5.94501014526278
C         7.81778725374577    8.40527331602892    5.23915949032478
C         7.20453729358251    7.56333933880986    4.32438997874982
C         3.61280903704254    8.55031844001086    4.53120669205470
C         3.48210380015730    7.87617466826045    3.17182347002908
C         4.30609320380446    1.44268124850710    3.78723938424132
C         3.07198739436669    1.03148208719884    3.29186816766633
C         3.04104494307374    0.14344749682921    2.23423450855842
C         4.23190021076004   -0.31994007140436    1.69411339990523
C         5.44998557125217    0.10281707301301    2.19988259773150
C         5.50031883588393    0.99237450513076    3.26151423395089
C         1.90211614066156    1.68483923420143    3.95887870931729
C         2.38009060148783    2.14395159400938    5.32956275614472
H         5.55993841348765    1.94393347395520    9.29632530370994
H         3.21642771016013    1.88557531623975   10.06765631287945
H         1.58359114932421    3.51780407171646    9.21369834785667
H         2.28368307530287    5.23070461998788    7.56292286556372
H         7.40303334809960    3.58672241932268    8.12300361335326
H         6.70803302203441    3.05519988131198    6.58208886779613
H         7.31729374978430    5.24785901543663    5.95465889716040
H         7.02145264425995    5.91027057202368    7.58965157682069
H         5.12686470931497   10.16814207366778    6.30644876720182
H         7.56291584692844    9.98943991387977    6.65181877100908
H         8.88333785270592    8.33538198705964    5.39597997995013
H         7.76475939002505    6.82653691236368    3.77074043812259
H         3.11502490583948    7.93450785641395    5.28880983490988
H         3.14682112410337    9.53582539322091    4.52963292950033
H         3.60401114144577    8.58404211994427    2.35080051821530
H         2.55265525095653    7.32486394109299    3.05185557192824
H         2.09318207934240   -0.17574270575554    1.82740366075116
H         4.20676413490276   -1.01067193614876    0.86464911221924
H         6.36989595173859   -0.25658836446707    1.76473785531795
H         6.44145994224330    1.34754767584423    3.64973975311304
H         1.61518842117703    2.55815486007963    3.36315673534571
H         1.04126206794576    1.02097874884481    4.04139554825108
H         2.34057806544913    1.34283277931948    6.07007714551477
H         1.85140138358941    3.01863478112444    5.70135922387508

