87
CSD_code = JULNUB | q = 1 | S = 0 | Stoichiometry = C39H41IMoN3P2(1+) | MND = 6
Mo        5.17637088745829    8.26960247399797    1.80841380030961
I         3.18152166246281    6.33903800070137    1.62634843047962
P         6.33630170791598    7.16315861375810    0.00205431216206
P         3.92502292611195    9.29827466906682    3.59990472643977
N         6.73751852272374    7.39508876898689    2.74425376888649
N         6.60624590480736    9.65058657096125    1.95137156869897
N         4.45237634098585    9.94590182081836    0.95122186540202
C         9.07831955565116    7.49986174883372    3.68327656972790
H         9.90752870305919    7.46053647326488    2.97652433433813
H         8.93048281464016    6.50796661291446    4.09887907490555
H         9.36802400284200    8.16788902687134    4.49340458236162
C         7.85108150279176    8.03653191277542    3.01319462877345
C         7.79630269374341    9.38296087066637    2.55978040418540
C         8.81508877888874   10.33029030262370    2.66828629921375
H         9.74200554280863   10.06499050750269    3.14681112020462
C         8.61954301069417   11.60003251021273    2.15818987237936
H         9.39151487507061   12.34764779151710    2.23773074166797
C         7.41652014364982   11.89393357170036    1.54410493031034
H         7.22798596304114   12.87405792435153    1.14116955564684
C         6.43631960621374   10.90563852379557    1.44703306933052
C         5.14755601153642   11.05622434648954    0.86568318916232
C         4.71675659034390   12.36264518189424    0.27369026277809
H         4.61871050801376   13.11698939040971    1.05472906572781
H         3.77351104212394   12.29098584242173   -0.25897090621791
H         5.47638400780757   12.70988557766722   -0.42544756170720
C         6.67101832179532    5.96174325082537    2.93551900728984
H         5.62807992912133    5.63477822092813    2.92734727984493
H         7.09365701476176    5.67986548007897    3.90777734180230
C         7.43151533671332    5.23297425963168    1.81827460676214
H         8.46738076741330    5.57609041987988    1.82692677201931
H         7.43252041293748    4.16427545250871    2.04641807500183
C         6.81372061623319    5.43371180945387    0.43175141958365
H         5.87749308363819    4.86279528475300    0.35771390559273
H         7.48998120056856    5.05367460259732   -0.34165434233126
C         5.68386788345383    6.92149915414230   -1.67377227512935
C         6.51762724429630    6.41254894280266   -2.66815565902323
H         7.54780325577940    6.17444968440682   -2.43909629319591
C         6.03207994463109    6.22841076211580   -3.94768581851844
H         6.67849684233265    5.83023451612943   -4.71503919308975
C         4.71785431287627    6.55556659404797   -4.24713733619244
H         4.34090273126610    6.40592243542206   -5.24702047743198
C         3.89203613819245    7.07942231338976   -3.26742842211532
H         2.87087050699538    7.33976953946367   -3.50095849118025
C         4.37506410743075    7.26665157020520   -1.98414827874533
H         3.72987750241786    7.67897064873828   -1.21932961188966
C         7.86406681209273    8.06373417698840   -0.38297627755640
C         9.15942851860301    7.63206021623507   -0.13207151246465
H         9.34687237101498    6.63928783757377    0.24930791297179
C        10.22957146164596    8.47194434181687   -0.39379181208380
H        11.23565803568115    8.13149946907834   -0.19862568265215
C        10.01577503496487    9.73884393971127   -0.90702851798574
H        10.85348835278864   10.38959165330200   -1.10400107607355
C         8.72561699235283   10.16688358178093   -1.18211708748461
H         8.55878069006142   11.14808145684193   -1.60025825560260
C         7.65709008085654    9.33482497492053   -0.91908137084113
H         6.64232721194069    9.65199865167009   -1.13866314920695
C         3.04742860073111    9.94682983685512    0.60508409246000
H         2.69881620098786    8.91891487293852    0.47458741764330
H         2.88168942769695   10.47040431419422   -0.34463973008406
C         2.21991473219098   10.61934512431984    1.70998707286990
H         1.18147140722644   10.67300713971199    1.37394866462499
H         2.58172290740649   11.64105080673447    1.83655791434700
C         2.26095354131474    9.86952598946403    3.04451943579943
H         1.66387699860958    8.94978167191161    2.97082216997553
H         1.81770232409194   10.48390738769128    3.83561829907805
C         3.50027754362791    8.49808418157875    5.17158330293350
C         2.88304835912236    9.23835574667129    6.17837892601634
H         2.66728775332459   10.28704059985168    6.02309952462756
C         2.56277187174235    8.63591157804182    7.37898122283562
H         2.08062916749203    9.20987761176019    8.15572597817902
C         2.86140964713107    7.29753150332696    7.58778721934357
H         2.60528955215544    6.82946351733111    8.52562365910342
C         3.49397022663086    6.56427739039192    6.59850646661003
H         3.73355066714693    5.52475292066249    6.76306635606667
C         3.81741301475957    7.16448542678903    5.39431730709574
H         4.31557470097172    6.59296628453675    4.62161647051886
C         4.81476788798004   10.75407681146079    4.21831937097335
C         4.44042177716231   12.08042209079232    4.05141281869582
H         3.49641361895432   12.33471873357167    3.59274587129534
C         5.27333692754291   13.09366436735452    4.49716290906875
H         4.97801554504634   14.12411190554573    4.36612055113180
C         6.47588583894721   12.79201530990035    5.11120524414801
H         7.12249725282242   13.58621407885757    5.45058917220175
C         6.84391855204754   11.46866289692636    5.30277669497891
H         7.77330468289692   11.23182222865718    5.79827785635005
C         6.01902263453930   10.45692557851217    4.85662889509507
H         6.28900061752680    9.41632781815900    5.00775576073504

