78
CSD_code = JULPEL | q = 0 | S = 0 | Stoichiometry = C22H48ClO2P4Ta | MND = 7
Ta        9.55129059407111    9.13156874220509    3.25214759888839
Cl        9.21735027251638   11.46664086063972    3.43604525062434
P         7.04893498973442    8.83355700090652    3.51109603353784
P         8.54039719956942    9.68316391481484    0.99008225042237
P        10.42816268126042    9.07929310726580    5.62946854351664
P        12.04079398727554    9.73897999790277    3.01678206298107
O        10.52272847512251    6.58589385500494    1.62512599226098
O         9.33804794024942    6.14238761919756    4.32034693280834
C        10.12521705481022    7.40675857352393    2.40681790817291
C         9.50273782616236    7.17760315861946    3.73401440497768
C         6.02507089457486    9.49128095845215    2.10537165302427
C         6.18509851971446    7.23840148366572    3.85448880142960
C         6.51394730917536    9.91746132233088    4.90376010960548
C         6.41128717049278    6.18557154409375    2.77750713128365
C         5.08040794836774    9.79688846229234    5.40204611508319
C         6.88114999388512   10.43948025007539    1.28116327963579
C         8.18978546066523    8.27388216566125   -0.14268715430889
C         9.27013938194493   10.98648342768202   -0.09330974781306
C        10.42501689446565   10.45971940451978   -0.93419348245174
C         7.29227205244700    8.55844566078972   -1.34001728309703
C        12.26835319081527    8.94311066551666    5.63110750028182
C        10.06130102243128    7.76078816202264    6.86770129467507
C        10.11912702518219   10.64919511216488    6.55431478097214
C         8.59464666425822    7.70029490293191    7.26420223661870
C        10.82764853203042   10.84657527725274    7.88713499334049
C        12.82787724348464    9.98578218060882    4.67737490653462
C        12.44274951330668   11.33996333198309    2.19586912105245
C        13.24362581424919    8.52633085930900    2.30803819034424
C        13.90095196327042   11.77971745499332    2.21562837801016
C        13.11864143464236    8.32586913644975    0.80552420688419
H         5.13337867248604    9.99333275504060    2.49281970626643
H         5.70786090805969    8.64328931208796    1.49282351412129
H         5.11634815692382    7.44577490679574    3.96974275183641
H         6.57844481049780    6.86936998892706    4.80511452162267
H         6.72354469998535   10.93330340609682    4.55171594719005
H         7.21403491582623    9.71226207932818    5.71815375379314
H         5.98053434518134    5.23638375413200    3.09123029283970
H         7.47493506620469    6.03436103213941    2.61045393470429
H         5.94524710755304    6.46940907490526    1.83557150377066
H         4.36146320314244    9.89483689215377    4.59079298676837
H         4.91703457816149    8.84157826544146    5.89566585596244
H         4.87829683618887   10.58703152698905    6.12350864008882
H         6.40458334364650   10.70671864713421    0.33288997526327
H         7.08190278948623   11.35819227796105    1.84068839399397
H         9.16926966115817    7.91218654128985   -0.46743126032780
H         7.76442864751272    7.48498379572272    0.48399802807708
H         8.48811372617747   11.42575011165441   -0.72017617514030
H         9.61748543739783   11.75741854064779    0.60147169085709
H        10.06280344425211    9.86135819728464   -1.76718293225976
H        11.01377607367604   11.28164340096406   -1.33975898414767
H        11.06933400159392    9.83118524823090   -0.32261054883266
H         7.66955891159421    9.39189337255348   -1.92843258858438
H         6.27662083631212    8.79234357641448   -1.02789016315059
H         7.24972511919820    7.68180971450337   -1.98448278775991
H        12.50265098269304    7.93459234410284    5.27437300830122
H        12.66381330494470    9.05257282434554    6.64575026441773
H        10.34759138612478    6.81949911576653    6.39245425479731
H        10.70376389933092    7.91501111179273    7.74031906014300
H         9.03473696752385   10.69923622190026    6.69158364667199
H        10.37166024844720   11.45267546734658    5.85673207223554
H         8.41618570153702    6.85621250157607    7.92818545331290
H         8.28165859883781    8.60974030966941    7.77505518486963
H         7.98714363786291    7.56701509889644    6.37127146332708
H        10.58554270301146   10.05104928655433    8.58854580733792
H        10.51078525285711   11.79030239182131    8.32855990208521
H        11.90750800161229   10.88410630291114    7.76319658638526
H        12.56074990761877   10.99011962716970    5.01880349655940
H        13.91730569358864    9.91428746569722    4.59957344636663
H        11.80876559282791   12.07620880118986    2.69959706875811
H        12.08371534859570   11.25989838746784    1.16754956646222
H        14.25634408503376    8.84746937593274    2.57338490883425
H        13.03894824124508    7.57862024291011    2.81440840416203
H        14.00011910545246   12.73242556704747    1.69771425535040
H        14.53845211969766   11.05619687613390    1.71280166104525
H        14.26148051127103   11.91277397745024    3.23259669769712
H        13.84768323179680    7.59058629498305    0.46860702449632
H        12.12788851231069    7.95080015307909    0.56305159730062
H        13.29812262342539    9.25409524301496    0.26645710282232

