41
CSD_code = JULSEO | q = 1 | S = 0 | Stoichiometry = C13H19CoN3O5(1+) | MND = 6
Co        1.81160090426025    3.31090205223560    1.32390586218115
N         1.18457559330594    3.69687449188904    2.95575489101031
N         0.54643058358304    4.71407751124134    0.69512705364758
N         2.95953486852700    2.01225887413942    2.31968196575548
O         0.43436952620286    2.10328742353930    1.13387882763234
O        -1.74389120290060    1.90337318575524    0.81198727077455
O         3.24168898890006    4.47093060800208    1.40688102562362
O         5.40813513457849    4.60097396493630    1.84683003333917
C         1.36636356679877    2.81613826847921    3.93972027822662
C         0.82184927008266    3.04781707894024    5.19192733332694
C         0.07274039470848    4.20074772666883    5.38818298906771
C        -0.11901336043258    5.09037649310598    4.33930463584733
C         0.45977699309218    4.80327426831703    3.11396920645260
C         0.41050196876590    5.61864771928292    1.86147281863029
C         2.13952781661326    1.61682417856044    3.48783769367849
C         1.00372308402217    5.50196881495401   -0.45544258109100
C         3.33882272481735    0.81378053164853    1.56454153578615
C        -0.73844377633572    4.04727329680498    0.39445239289267
C        -0.73208063169614    2.55109346334256    0.81746915784840
C         4.16399927055449    2.74826223486856    2.76137495007988
C         4.34183792472249    4.05582255907240    1.93516850205569
O         2.44301486003084    2.86185232779007   -0.60313440838854
H         2.29962432556091    1.99917910085183   -1.00952256411119
H         3.28167816324039    3.22476538700897   -0.91514397533651
H         0.97069768440961    2.33895645341031    5.99014182387744
H        -0.36708196242850    4.40044084059438    6.35247836821212
H        -0.70630939025519    5.98473381495746    4.46907720770569
H         1.27643159079439    6.29016655814415    1.86860261742083
H        -0.49918954097326    6.22416399894505    1.79145875471080
H         1.41495342588283    0.86349956023023    3.15931582530508
H         2.75967656210561    1.18701520086578    4.28147331466316
H         0.31064871882498    6.32376145226845   -0.65289232499452
H         1.99307231134590    5.90619607693152   -0.24787652956113
H         1.06061426875585    4.87043372533616   -1.33900066636442
H         3.82560143589195    0.08726829664547    2.22142936881080
H         2.44747022837120    0.35745277415381    1.13550224090690
H         4.03686375921529    1.07822279895051    0.77184584000783
H        -1.58139546121351    4.54057551938140    0.88273416951913
H        -0.92669546495500    4.05378657879394   -0.68078634663357
H         4.06370777173777    3.06844203265297    3.80095906050301
H         5.06576707148784    2.13938275630363    2.67821238098106

