18
CSD_code = JULYUK | q = 0 | S = 0 | Stoichiometry = C6H9AuN2 | MND = 2
Au        7.10991781880171    1.61781425459742    4.24963571330253
N         4.57153289123104    1.61668192268293    2.51640945805868
N         9.74483918202889    1.61723785035208    5.78307185328545
C         5.52282633092771    1.61789508753381    3.16604541820746
C         8.70872980642825    1.61678863949469    5.26402071400091
C        11.00000334071359    1.61726678306357    6.42218855598226
C        10.75837912257058    1.61726996451700    7.93405385204143
C        11.74832126274305    0.35521849504266    5.98464573345251
H        11.71146255190820    1.61728937291461    8.45577700171346
H        10.19721590766162    2.50062143665577    8.23137024632197
H        12.72458300366442    0.32644688368944    6.46089058594503
H        11.19393101646029   -0.53622642762073    6.26987052018351
H        11.88598924525126    0.34736967970580    4.90548293853204
C        11.74831869245418    2.87931736827088    5.98464105598437
H        10.19725178630143    0.73389708604797    8.23137485870525
H        12.72457573664146    2.90809454682871    6.46089137563015
H        11.19392687849496    3.77076345554053    6.26985160930283
H        11.88599542571740    2.88715360068277    4.90547850935018

