93
CSD_code = JUMBEY | q = 1 | S = 0 | Stoichiometry = C44H42N2O2P2Rh(1+) | MND = 6
Rh       12.11342156327445   11.80614065918505   -0.55110805129837
P        11.28452705403105   13.57115841389419    0.58741958295504
P        14.24526248393159   11.80694647316683    0.19254763736370
O        13.05506552098367   11.94078645360658   -2.25935009943449
O        12.88884330210706   10.64363816845324   -1.91857594369085
N        10.19026177400132   11.82503486226776   -1.48464360734186
N        10.74788982120319    9.95299717982776    0.85828689297022
C         9.68801337519438   13.06203324524050    1.30440360446701
C         9.30421883012123   13.39094044347936    2.59766269263601
C         8.06973923793406   13.00503815632291    3.09374178803386
C         7.19046828908819   12.29881235102506    2.28887417564452
C         7.54879908904073   11.98907839636216    0.99087784684887
C         8.80130987236707   12.34423749736656    0.48144900529572
C         9.06753544001476   11.99479136275076   -0.90313339779453
C        10.17896693037956   11.47731079325907   -2.90532653118144
C         9.99936714931073    9.96186461307368   -3.03037172049891
C         9.13419523277100   12.23852715638893   -3.72129029970561
C        14.18681874309579   10.82286618623965    1.71672237357306
C        15.29757859187144   10.55755300083563    2.50661969612329
C        15.10681967626769    9.91037685062188    3.72317867289511
C        13.85318919230776    9.43210775219477    3.99708733126236
C        12.76188374684325    9.52953620844490    3.21324832145363
C        12.92635869064627   10.29864363369894    2.03403507970478
C        11.81935814980203   10.48124509755334    1.12112312469447
C         9.92185384575891    8.80242297310838    1.03247921691194
C         9.12839824380258    8.88823404724165    2.33694899571788
C        10.75020043372160    7.52152497180082    0.93147873493880
C        10.73510315103909   14.93813393204236   -0.48144967949021
C         9.84571026657759   15.89871798810610   -0.00464364660313
C         9.41810137549267   16.91181918585178   -0.84212022095456
C         9.86983592702094   16.96979439522296   -2.15240443292973
C        10.75185026135370   16.01335077182161   -2.62850938917665
C        11.18467088935236   14.99535588710738   -1.79639460261840
C        12.14526284910260   14.37807061889476    1.96774487514514
C        12.46629007280513   13.60389613128572    3.08244707155236
C        13.14456630857783   14.16440749979829    4.14707093447845
C        13.51742531518059   15.49916029675414    4.10335094439994
C        13.21907758447558   16.26576347551893    2.98964948689744
C        12.53965675532258   15.70998105428278    1.91951875810306
C        15.54976578939370   10.99127220637544   -0.75739167859145
C        15.50469372431799    9.60192214114079   -0.85734939712181
C        16.46639252864786    8.93580659480154   -1.59122568309817
C        17.47058855321482    9.64934568458700   -2.22807577907167
C        17.51118298257445   11.03045955042202   -2.13252918631266
C        16.55075668508326   11.70844931997286   -1.40221071275719
C        14.90752584895469   13.45218406787375    0.57898534061988
C        15.55501670979376   13.79956538953933    1.75594202063047
C        16.04842110454383   15.08434596059081    1.90842675032075
C        15.89574695086423   16.01950911868824    0.89869537610363
C        15.23468221785322   15.67857053194888   -0.27146313225885
C        14.73902132186021   14.39898725300002   -0.43089924286385
H         9.97372077287101   13.96070362307991    3.22528780087394
H         7.79225550027467   13.26686032382655    4.10312033306695
H         6.22435108057133   12.00314821930191    2.66736725546334
H         6.85555667972750   11.45074109379361    0.36059984214062
H         8.15476243043687   11.84889214021216   -1.48173130058373
H        11.16892989465177   11.73856278599685   -3.29610318357119
H         9.03535883906016    9.65641798232051   -2.62557385212541
H        10.79636091650489    9.44931017323717   -2.49414409521119
H        10.04991868730896    9.67565720225901   -4.07661149629076
H         8.13412644653085   11.82608346440221   -3.60556353289660
H         9.39644273655084   12.16697734970688   -4.77315618038372
H         9.12090069760320   13.29117749860234   -3.44245738289826
H        16.27967796615288   10.88889981963504    2.19808844063560
H        15.92111706300860    9.78914302006445    4.42030644721654
H        11.81640290238350    9.06679710396141    3.43732583375003
H         9.20813298973942    8.82869107667574    0.19791942555357
H         9.77001177330486    8.75077396612343    3.20335481996591
H         8.37235980865705    8.10771839354177    2.34538529845057
H         8.63416425602682    9.85366698496026    2.42104511750799
H        11.45105384483927    7.43949239691590    1.75852035134544
H        11.31156925830332    7.51075198301568   -0.00031746072920
H        10.08665049310625    6.66116047067479    0.94794826611353
H         9.49526910207339   15.84790700277803    1.01760554402168
H         8.72925720485292   17.65709775053912   -0.47435118074720
H         9.53018948438133   17.76133445534502   -2.80259944864632
H        11.10037950227137   16.05818065798273   -3.64925194118142
H        11.86765169712812   14.23676293297368   -2.16363314390192
H        12.16605016007924   12.56434356001643    3.11373926782559
H        13.38012048562131   13.56199159581133    5.01166932695370
H        14.04232176628852   15.93931429872085    4.93707966955277
H        13.51456688540991   17.30310033828867    2.95265470646566
H        12.31422482986217   16.31009557392132    1.05006720303818
H        14.70684424414953    9.05535855892131   -0.37176090212724
H        16.43093100392210    7.86008054956879   -1.67360850231719
H        18.21878304956127    9.12722268184983   -2.80465773856114
H        18.29016629732445   11.58480031374613   -2.63377444745224
H        16.57878070585396   12.78653127104832   -1.33635835957536
H        15.66613681258375   13.08228664328523    2.55471946935270
H        16.55724724095723   15.35395527155415    2.82142153029206
H        16.28979025557975   17.01627410913991    1.02458830084738
H        15.11033393625702   16.40829472339368   -1.05730920543693
H        14.22644084494755   14.10802463572551   -1.34090079271311

