25
CSD_code = JUMJUW | q = 0 | S = 0 | Stoichiometry = C6H12Cl2N2O2Pt | MND = 4
Pt        1.60961689574309    1.51380111106524   11.70260625560709
Cl        1.87340131460368    0.30392111157595    9.84792334618026
Cl        0.41886786400547    3.00753685746903   10.55678124521107
O         1.67674424487396    3.70117115948075   13.38578231496240
O         1.70260560935838    0.33265330415081   14.21403822156508
N         1.57912058990662    2.48531784588188   13.26643993811767
N         2.42493873440851    0.08123876157069   13.03136783318448
C         1.68468466156666    1.71155074588375   14.53090930720197
C         0.42718731551964    1.97390099078081   15.35666541587663
C         2.96488453587242    2.12563253841980   15.26117020778251
C         2.80338868427956   -2.08549704451387   14.03058904349593
C         2.96107940910557   -1.07599532603386   12.94550848006898
C         3.76732113488701   -1.41714457251944   11.75206997361349
H         0.36089478841873    3.03575732575177   15.57685874661990
H         0.47033617541034    1.40613290112503   16.28115820228656
H         2.96550394064564    3.20431352429415   15.39443497093513
H         3.08702995610619   -1.65108020001868   14.98893536198819
H         4.01951516652428   -0.52778238363631   11.18006164890197
H         3.18932345731114   -2.07182491513731   11.10008637049511
H        -0.44939082491576    1.66791691548854   14.78963986439608
H         3.83533733938735    1.84280004871722   14.67017298251402
H         3.01269076656690    1.63722486819362   16.23017946938820
H         3.39681747481946   -2.97226953255373   13.83555557548384
H         4.66921252110124   -1.94571601470356   12.05358292639099
H         1.75218824449256   -2.36146002073765   14.11148229772031

