80
CSD_code = JUMRUG | q = 0 | S = 0 | Stoichiometry = C34H38NO3PRuS2 | MND = 9
Ru        9.93606826384783    8.77955318482090   15.67396877570539
S         8.75587894266859    7.47027837281955   13.86919761257425
S        11.43357196638317   11.05067067218109   13.70078812676235
P         9.99293121012087    8.54692135453022   12.71554215106951
O        10.18501652415255   11.77395536062751   13.58195273938179
O        12.30159028691605   11.45176339757442   14.78216092600922
O        13.21728402533172    8.25821288953030   13.68070404987855
N        11.58818022262010    7.61112562509958   15.21110094171629
C        11.02660187213458    9.34284378900941   13.94193157201413
C         9.07552589743112    9.72767332871586   11.68890844746376
C         9.37479881499318    9.92593545902123   10.34738225944454
H        10.16546139897207    9.35911277046693    9.87624494080094
C         8.64956706487674   10.85401799106820    9.62071146307665
H         8.87779211351172   11.01152008683299    8.57684030438228
C         7.63894935237790   11.58027663649906   10.22903358330222
H         7.08144521711454   12.30775478547971    9.65758854395562
C         7.33760456974669   11.37293502704608   11.56624843072241
H         6.54739819696123   11.93825359599426   12.03674070602626
C         8.05071512873280   10.44322561719079   12.29684938767746
H         7.82906567982302   10.26393000656589   13.33896832410529
C        10.90991903479062    7.45706209635966   11.58607710285374
C        12.06439291529941    7.90174842485360   10.95070370833012
H        12.41549782472945    8.90996430925958   11.10831448343429
C        12.76810651324034    7.03492717987445   10.13534996123417
H        13.67093003734957    7.37515940547136    9.65068414250696
C        12.32420539086673    5.73501397123887    9.95084809055536
H        12.88312071405811    5.06029116104604    9.31944835598739
C        11.17009862207404    5.29667553047594   10.57941116586757
H        10.82572177929403    4.28323815187556   10.43714766593975
C        10.46255787910270    6.15451515958586   11.40166385613168
H         9.56717939119861    5.82549228257403   11.91193586479282
C        12.34138324230350   11.28481351876154   12.16582792052963
C        13.64334564351548   10.82838868461849   12.07414514551659
H        14.08064992618135   10.30699161666004   12.91080036972765
C        14.33845213877165   11.02360472644802   10.89116294895774
H        15.35436858513457   10.66993459500603   10.80166242796546
C        13.72847374528578   11.66899005683590    9.82595791982964
H        14.27307372380645   11.81730024525491    8.90486114968162
C        12.42688590066042   12.13253390654084    9.93799573839448
H        11.95837134990473   12.64413375158006    9.11054567829253
C        11.72775802332906   11.94479720079045   11.11910032340825
H        10.72089839543190   12.30820902984554   11.25287172767472
C        12.07375895438786   10.55792892065219   17.76143156070320
H        12.54349190462571   11.00395956669457   16.88586370539431
H        12.70832110673373    9.75892550505384   18.13910629331634
H        11.98724582810433   11.32668276723266   18.53156114653649
C        10.71342675462178   10.04457839038283   17.39958819687952
C        10.20695266970850    8.84042207121774   17.94971093178728
H        10.82515094302949    8.28137867507410   18.64532970113369
C         8.88987371415784    8.41920716101821   17.69864351190625
H         8.49749101463033    7.53611542191124   18.19237077333706
C         8.03184961843041    9.19398438782798   16.86592821785543
C         6.57031052705304    8.80436419806156   16.78433768787308
H         6.50281629407874    7.71832705938055   16.91789772394012
C         5.83934159189305    9.48636887258525   17.94855251998835
H         5.89373213641064   10.56841465243368   17.84649851554967
H         6.28507965812300    9.20851219286917   18.90141037528790
H         4.79279452239712    9.19158050167149   17.95642433907914
C         5.90257641451769    9.15216596325200   15.45584521490491
H         6.44327682572386    8.69057345034667   14.63293764711661
H         5.85709524399659   10.22787578690881   15.30266684286915
H         4.88440575682284    8.77000662526628   15.45060150057429
C         8.51195111566606   10.42207291416207   16.35473898969983
H         7.85359464970000   11.09109088126707   15.81625467282469
C         9.84290598802636   10.81672131858826   16.58970934860510
H        10.19057493402978   11.76876570022680   16.20621129098678
C        12.13895227965712    8.33711258486081   14.25868994978403
C        12.14501570268143    6.35437175852596   15.68756584106138
C        13.47327296593989    6.60731151548835   16.40776919182962
H        13.88521912547652    5.67318704398184   16.78208295479221
H        13.32359721435835    7.28978804797201   17.24179340417857
H        14.17718590655459    7.05833981089015   15.71367842181768
C        11.11989642734917    5.71733816323102   16.63067862695666
H        10.12674529402579    5.78706044156890   16.18335903308173
H        11.11229338036389    6.22469450505971   17.59073662023633
H        11.36064087248893    4.67033894712769   16.79543646756670
C        12.36332205968342    5.42604183481639   14.48372180309167
H        11.41189816613992    5.23423133071033   13.99072834542900
H        12.79422448711089    4.48223814436327   14.80810439118850
H        13.03588042625718    5.89747793129021   13.77205520715223

