80
CSD_code = JUMSAN | q = 0 | S = 0 | Stoichiometry = C34H38NO2PRuS3 | MND = 9
Ru        7.06490435790939    0.18574024578542    3.44176002479412
S         6.84813788139939    0.13113445480776    0.93847701974897
P         7.49083387168195    2.00111877316683    1.20058221247542
O         5.40994753785122    3.05553711353987    3.45996148503403
N         9.94920060511865    2.99222996479336    3.58540249534665
C         7.76475626888464    2.14248516203811    2.98173683662755
S         6.78083848836315    3.40332009435248    3.77038816018978
O         7.13087724264848    3.44551808257337    5.16810107824028
C         6.26407903471205    3.16042443498838    0.52929313635892
S         9.47035151608186    0.27402088000114    3.29038506658916
C         6.61929474064489    4.30690574617660   -0.17030693507402
H         7.65885246879177    4.55085772669007   -0.33125946137431
C         5.62956452999284    5.13161806982633   -0.67400491705557
H         5.90508987392423    6.02093030388599   -1.22112815153852
C         4.29432152352427    4.81969712657727   -0.47884193171796
H         3.52678355122367    5.47110650655078   -0.86996906408291
C         3.94220582932041    3.66731369306157    0.20587005493563
H         2.90135738772224    3.41860605497690    0.34889147949598
C         4.92353831524345    2.83101106503804    0.70185024460822
H         4.66359922683972    1.92291864084784    1.22671394517036
C         9.05675971628650    2.31515855987264    0.33845355612394
C         9.57978740855030    1.34092047544659   -0.50104036263230
H         9.03931339933561    0.41396199927716   -0.63692910596405
C        10.78748499738272    1.56391514621962   -1.13794791524198
H        11.20012097562447    0.80652587925794   -1.78705291091532
C        11.46759291582143    2.75338403126839   -0.93643628360410
H        12.41201527311489    2.92537306399201   -1.43124078847086
C        10.94751011331180    3.72059168582524   -0.08928006563068
H        11.48582608871777    4.64309865474474    0.07380902251282
C         9.74475671280932    3.50583787745356    0.55772690467266
H         9.34784746066730    4.24181681234268    1.24296072953071
C         7.07744644837462    5.04214695431873    3.07982128639901
C         6.00906880334787    5.75897147242675    2.57954792122952
H         5.02836277752777    5.31010434351987    2.59210143682652
C         6.22723792422237    7.03082718406121    2.07604055237308
H         5.40043935015725    7.60213998141812    1.68158725335074
C         7.50514753898763    7.56659109876640    2.08383184178552
H         7.67396035265034    8.55845792548209    1.69062533155323
C         8.56645895575678    6.84028966497849    2.60215347345957
H         9.55891717216646    7.26609659632903    2.61580038268971
C         8.35418081154279    5.56869098323920    3.11057876103089
H         9.15072404566248    4.96727986737873    3.52473422474357
C         3.85198265118944   -1.00013930696580    2.72206297658825
H         4.25015094797882   -1.19798864667979    1.72614834241620
H         3.19961648084441   -0.13106434035173    2.67387842004740
H         3.26242740855958   -1.86538576400023    3.02801678280638
C         4.97104271699167   -0.77281873618815    3.69557773477160
C         5.00498795552584    0.35546584404235    4.52480354954549
H         4.21768369516337    1.09627270562141    4.46740669724568
C         6.05579041564818    0.53783762605422    5.45728634355456
H         6.03881643500389    1.41552292200324    6.08990330215766
C         7.06269094018657   -0.43298083717591    5.61869956094957
C         8.12694726058316   -0.35252053652718    6.68937575844104
H         9.06513232402310   -0.71384010487569    6.24874564861167
C         8.35352633442759    1.06416175551256    7.21242314995915
H         8.43940578885945    1.77545353646397    6.39330772710860
H         9.26902831247546    1.09521631841012    7.79866776628684
H         7.53138744234021    1.37893833664711    7.85176338554891
C         7.73987402184486   -1.28922123691156    7.84094872803734
H         6.79658085929774   -0.97147098557160    8.28161242774175
H         8.50647870033218   -1.26532759614424    8.61147575726465
H         7.63020118245049   -2.31451842743724    7.49398140337346
C         7.00660012055744   -1.59750915343916    4.78981589705067
H         7.74360461391167   -2.38287724884730    4.93118509873559
C         5.98822407726715   -1.76380108215542    3.84417393439828
H         5.93031024750654   -2.67604516852061    3.25802614112099
C         9.19832830383962    2.02008557855220    3.32750043725218
C        11.33358783321477    2.90526483337900    4.00991755107502
C        12.18969117837471    2.12613311710798    3.00587190286635
H        12.13987981207343    2.59289404620242    2.02447530798111
H        11.83499710984498    1.10273919208938    2.91853223877832
H        13.22436610096989    2.11106112174299    3.33923328904667
C        11.83587644737840    4.35081671653494    4.10143506602655
H        11.76373048294436    4.83402885270219    3.12966645256724
H        12.87367546858854    4.36695168541466    4.42440423759863
H        11.23768212503159    4.91030148892373    4.81650930140728
C        11.41065693114806    2.24254657551015    5.38887890761445
H        11.05426749376953    1.21781072724798    5.32631612623763
H        10.79028744820234    2.78794913514917    6.09627164085755
H        12.43808883775298    2.23788265918131    5.74435298234594

