29
CSD_code = JUMTEQ | q = 0 | S = 0 | Stoichiometry = C13H10CrO5 | MND = 9
Cr        1.23842173501389    1.01715655415217    2.63950411452464
O         0.14851938366525    2.35169779005595    6.69624617874480
H         0.32268059457094    2.77184857034155    7.56623922868293
O         0.06410920910057    4.67181500813321    7.76283316779412
O         3.57659624387706    1.59862903871118    4.39051705259560
O         2.70957671393425    2.94795128394601    0.91748722357540
O         3.24045170465524   -0.74385680390932    1.31680191534817
C        -0.49032792426955    3.20783603517481    4.55881528890051
H        -0.74930528268895    4.09746108724000    4.00434048480061
C        -0.19928784289361    3.36902919559790    5.87437306857994
C        -0.21525456011942    4.67200814080618    6.57250658128667
C        -0.55937056756143    5.92194851660499    5.81824037578319
H        -0.52146497516916    6.76771015157986    6.50000265565931
H        -1.55825184021037    5.84741198399715    5.39420520645586
H         0.15302402304805    6.07935020026654    5.01137393675018
C        -0.47538683710879    1.98808776822228    3.79931430714776
C        -0.19043609029754    0.71397671268287    4.36545900265302
H        -0.03048955633497    0.64213052429057    5.43203882883737
C        -0.24728678007254   -0.44382389222758    3.59653513717850
H        -0.11099911529851   -1.41123148828554    4.06435603990751
C        -0.52902057205986   -0.36610981694339    2.21941962600862
H        -0.62557918410590   -1.27502091960161    1.63702550675166
C        -0.83010238879317    0.86985377190203    1.64006377637909
H        -1.14151556864895    0.92584211056124    0.60380623790517
C        -0.76074146634118    2.03511995130680    2.41242141160051
H        -1.04514906328592    2.98301463971568    1.96713254747024
C         2.64748973647308    1.36415129905017    3.75204402451413
C         2.10159673177683    2.22100378261570    1.57638115588020
C         2.43530353914551   -0.09829119598698    1.83191591828403

