81
CSD_code = JUNWAQ | q = 0 | S = 0 | Stoichiometry = C27H44BClN7Rh | MND = 6
Rh        1.62508660917991   10.49207545970197    5.15634671848802
Cl        0.56836866657390   12.33037684167572    6.01811301831083
N         3.38512872096603   11.01603640416357    6.06812076312388
N         4.09015517487147   10.05227483691861    6.69462341663019
N         1.23373556461499    9.27942465587803    6.99186702206209
N         2.26704404663642    8.54702993380471    7.44151690635786
N         2.56438998183939    8.81747794619431    4.44633101938308
N         3.39012069466001    8.14572146917192    5.26278277551124
N        -1.15434017132456    9.93964891884184    4.06048846739474
C         3.56089031699999   13.49707735233503    5.75081326547234
H         3.10027124674219   13.39769854913737    4.77124142295254
H         4.40880698188132   14.17692402225247    5.69720064444710
H         2.81403839741911   13.91963663558810    6.42233030607260
C         4.01177212766090   12.17652780877862    6.26126559453632
C         5.15285140101841   11.94626202875992    7.03431651228614
H         5.86531601231411   12.67699216308755    7.35946162810099
C         5.16805423067882   10.59071671574434    7.29261651110780
C         6.16217367905842    9.81388758050469    8.07863310917892
H         6.61566952340722    9.03408836755116    7.46915651574697
H         5.68932992035436    9.34052297675502    8.93754437297528
H         6.94222176720483   10.48274812125188    8.43265136175717
C        -1.12737772291987    9.71986987923202    7.61153037780917
H        -1.00405258206858   10.72665695132755    7.21886663599464
H        -1.65852059544740    9.76221491446134    8.55940919452409
H        -1.72401902863321    9.14100833354228    6.90549103868647
C         0.20155777859168    9.08243791835361    7.80393035827727
C         0.58422433125530    8.19236246032059    8.81253853267722
H        -0.01924635025732    7.83592227629806    9.62282215144874
C         1.90319570661479    7.87550850389489    8.54998114414971
C         2.80864135236621    6.97140796727150    9.30675683933410
H         3.67531953265216    7.51561153579646    9.67845319596664
H         3.16538638440158    6.16128918458330    8.67254247056630
H         2.27247400407473    6.54686766523529   10.15143148181865
C         1.66330759139585    8.57722486483162    2.12574502155634
H         2.16858880810197    8.32351733133384    1.19614269977149
H         1.45854441131196    9.64480762763938    2.15065773598739
H         0.71373566739240    8.04173273775920    2.15359312768893
C         2.50695284991639    8.17220747611655    3.28305324988241
C         3.33486059138391    7.04969234811163    3.35663005046065
H         3.51150351155411    6.32775763179874    2.58535658439416
C         3.87678782792359    7.06497900140023    4.62813029603698
C         4.82662567248925    6.09746990625619    5.23630318910805
H         5.73809568450540    6.59996871174633    5.55466528935974
H         5.08149113177888    5.33396511072835    4.50611864095416
H         4.38370822948762    5.61782217602544    6.10738717556732
C         2.20634915384457   11.50456538539540    3.49942217180480
H         3.19541997322926   11.20802440133604    3.14144238122663
C         1.56066474190780   12.45327570954408    2.84438859553607
H         0.59463031370149   12.79743639204920    3.19523270930786
C         2.02451249317954   13.19161862419836    1.60299810087971
C         0.97904310031728   12.95946519401967    0.50409333213138
H         0.89192458346562   11.89763235537558    0.28120082560210
H         1.26364162778283   13.48128200055865   -0.40771732572165
H         0.00458209804421   13.32544357091655    0.81910414511467
C         2.08930410513482   14.68785551502143    1.93153200808496
H         2.34135338494405   15.26266652093071    1.04207733341251
H         2.84482706279779   14.87736902962106    2.69072199955158
H         1.13201258920038   15.03807008483039    2.31049853785464
C         3.39096672176708   12.72433277460214    1.10238240345351
H         3.36850920547193   11.66759035935716    0.84494353964438
H         4.15555369822224   12.88553534333331    1.85874832883560
H         3.66954914255795   13.28623214068929    0.21278669938535
C        -0.05391173612255   10.08891061704929    4.40919193202871
C        -2.50115017421665    9.87425490231137    3.70912998096854
H        -3.01922361390261    9.26687691539740    4.45984753461973
H        -2.57770315268060    9.37060120441378    2.73874038909730
C        -3.15803257742521   11.27095609434287    3.62714844776786
C        -2.47786482743134   12.08300037990165    2.52646269656564
H        -2.58650413982354   11.59683936902101    1.55833121818627
H        -1.41866167745206   12.19071915979638    2.74441364875189
H        -2.91920041596622   13.07444394932202    2.46482789356946
C        -3.01730290131599   11.98857321625868    4.96893682054357
H        -3.47471572172279   11.40758850051679    5.76721997023644
H        -3.51097897348530   12.95596662618974    4.92673753982205
H        -1.97054504048637   12.15428960552666    5.21678554171635
C        -4.63699292001286   11.06833676573731    3.29135688190913
H        -4.75387867763871   10.53993990988915    2.34701833157193
H        -5.13254297222610   12.03187296527936    3.20579040822962
H        -5.13719176091401   10.49719500525937    4.07071766545981
B         3.62122698382756    8.59244002269321    6.71920948273347
H         4.41236062293787    7.89884808707472    7.24821999586451

