67
CSD_code = JUNYEY | q = 0 | S = 0 | Stoichiometry = C19H42N2SSi2Zr | MND = 9
Zr        1.32945461294197    2.59171682929465    3.29356503326545
S         2.35452944986346    1.47578844709294    5.81920787519843
Si        0.06551306790319    2.75419450297159    6.81726817830657
Si        4.72233345929607    1.52186273163635    4.30423270161706
N         0.89699518016890    2.07664385414238    5.46864769075146
N         2.99993381055427    1.49372427699573    4.33726019343881
C         0.89320533708029    0.35279874803222    2.14474288037753
C         1.09411239814457    1.32400797682434    1.12573788328910
C         0.01734967617547    2.24977363533359    1.18050842796770
C        -0.83825982716073    1.86000828909608    2.24588944604117
C        -0.30234275377194    0.68201197393257    2.83510448474425
C         1.75553872306068   -0.87104782284958    2.32489233098980
H         2.02717553551093   -1.28294778942360    1.35213670119743
H         1.22273434125167   -1.64978090916553    2.87076332387643
H         2.67793934967990   -0.63456987103946    2.86380367638706
C         2.12955716364353    1.24340036893695    0.03536508724366
H         1.73839172222703    0.68037625838400   -0.81741430568544
H         3.02908002773627    0.73874403120400    0.38515567882034
H         2.40389300337579    2.23500249422496   -0.32227278253798
C        -0.26677193315592    3.33606017383070    0.17912319096598
H         0.65559568243696    3.74960166746527   -0.22696686384411
H        -0.83851312392589    4.14568164549599    0.63097932503933
H        -0.85077918015970    2.94098066504259   -0.65637092456907
C        -2.18919332796508    2.45360384200596    2.54563683018727
H        -2.17596340020797    3.53864497098127    2.44124324848263
H        -2.50682501602523    2.20472008397225    3.55637250496071
H        -2.93808421394495    2.06391423867264    1.84962178413510
C        -1.00738615274329   -0.12620603661178    3.89465905019570
H        -2.07041324883632   -0.20180116442656    3.65962590043447
H        -0.90849356173015    0.33427777196045    4.88179218394741
H        -0.61154604527910   -1.14065189419781    3.94233070136020
C        -1.80113857146604    2.89574142455700    6.43600385208495
H        -1.98962200940549    3.39782549228258    5.49391648476117
H        -2.28094746543713    3.47226362319157    7.21901389183859
H        -2.28792338672000    1.92632266387902    6.40222371050675
C         0.80095221443102    4.45265709415058    7.33014431945897
H         0.50637949489396    5.23884887870514    6.64289876339868
H         1.88811748947979    4.41560314543288    7.33711665156459
H         0.47297961248557    4.74722790069355    8.32188818455481
C         0.22533361406075    1.65003912541344    8.38136961356084
H        -0.25038029560131    0.68260621223424    8.25034798297953
H        -0.24255515470303    2.12076385334879    9.23947725823004
H         1.26827631622450    1.47589991531492    8.63087189763491
C         5.39975642680932    3.28725810343031    4.65409109863715
H         5.63064417527924    3.81532937045559    3.73469008929272
H         6.30802174745330    3.26119739038012    5.24868026414592
H         4.66163614771925    3.87825545866505    5.19453322855546
C         5.47443790904140    0.40392471949610    5.67253815545617
H         5.23253099597634   -0.64377281179628    5.52133556778977
H         5.10589780261022    0.69037189771519    6.65364127081267
H         6.55632603893194    0.48197794983659    5.69141743578940
C         5.33212338873577    0.83429807420936    2.62763432146966
H         4.74529261666094    1.21139485771154    1.79675888314701
H         5.29666258571807   -0.25015465625723    2.59688397885963
H         6.36321791407140    1.12910589439121    2.46790601194735
C         0.38082614650669    4.58850893449881    3.68363935905990
H         0.17757599094216    5.16334624877792    2.76739613427450
H         1.04739088123003    5.21648143591627    4.29687554688621
H        -0.56903058080163    4.51085997976917    4.22897349414206
C         2.88520987962683    3.79840124775344    2.21506150635785
H         3.69384527461249    3.18139590278092    1.80209145207929
H         3.35767799403261    4.52501463358305    2.89353553415002
H         2.47360214067465    4.38558362226043    1.38046886921456
C         1.95770561615396   -0.33200318994839    5.97580047690961
H         1.45196842271936   -0.63054930115871    5.06682887597145
H         1.32176254568165   -0.47101116001127    6.84140964787151
H         2.88978532523823   -0.87104792151403    6.09679475003451

