61
CSD_code = JUNZUP | q = 0 | S = 0 | Stoichiometry = C20H36N2O2W | MND = 9
W         7.78051347469172    5.91950943149021   10.76044020925247
O         5.29190548283080    5.33822942783215    9.29916397397033
O        10.35930542958764    1.99999330289646    8.85349205024149
N         6.31782603918139    5.48256027216478    9.88564719301561
N         8.86986769281555    4.24379681100089    9.83784164740662
C         7.07447203816222    7.81406130906826   11.89003963690931
C         7.76125063713480    8.23380381157208   10.70392297315878
C         9.13381088362702    7.87541526919593   10.84231303742740
C         9.29829342341760    7.22160641756125   12.09601939747854
C         8.04220524715834    7.22562200327563   12.76454575010534
C         5.67992488938509    8.24515475164795   12.25588779442706
H         4.96975399840649    7.97528170433702   11.47416160840490
H         5.64773580854606    9.32891602374380   12.38621950970175
H         5.35824191480176    7.78283303974917   13.18630689425467
C         7.16687962252573    9.09276884028338    9.62712838080610
H         7.71121977489417    8.98459267338316    8.69109665157265
H         7.20050632985346   10.14422641693475    9.92225095429740
H         6.12736973891947    8.82142039495586    9.45170631269181
C        10.23752708253035    8.35290279713151    9.94468902785938
H        11.12509618663915    7.72563369702336   10.01873301440409
H        10.52440569702378    9.36631525235146   10.23479782107697
H         9.91992721667816    8.38112102599998    8.90368493284955
C        10.60781021283809    6.86098590814213   12.74117043697344
H        10.53461094163971    5.92869511433441   13.30267902840913
H        10.91104570088399    7.64581165833812   13.43808656378217
H        11.40123010410581    6.75349376275586   12.00215235761827
C         7.83768825022464    6.94118304311393   14.22273198201438
H         6.87395034135713    6.47469797662961   14.41518526052425
H         7.87400470506976    7.88158748419350   14.77810539894728
H         8.61764993970577    6.29158353132068   14.61454829192351
C         7.32518376401630    4.32091794154433   12.23522659392780
H         7.52628990005202    3.30102910261945   11.88778107639055
H         7.95555471974283    4.45952923486407   13.12546196671933
C         5.86367412111629    4.36697250155502   12.66875891859357
H         5.57029133813172    5.39980250391355   12.87615014838419
H         5.23614560103614    4.01119895720895   11.84784920296093
C         5.54938203255527    3.52907044990330   13.92191592744798
H         6.24014021031316    3.82538049035321   14.72182658947974
C         4.12163663541855    3.80581429611466   14.38933504307152
H         3.98683764141822    4.86079911770317   14.61984388479597
H         3.88886390740262    3.22855229470928   15.28220021870189
H         3.41313889764942    3.53477955005172   13.60977273343932
C         5.72785119317253    2.03574091792965   13.66056516169714
H         5.09516321580722    1.72139528473474   12.83320780514495
H         5.45379832084672    1.45946624127845   14.54234969339665
H         6.76058469810354    1.80351955584386   13.41308955153792
C         8.95976896875640    5.43060578999367    9.04121003365953
H         8.52820023924717    5.30895579055376    8.04324328831832
H         9.98913937638576    5.79485410701499    8.94731025986755
C        10.11441964294695    3.80114208202488   10.46453500376004
H         9.86844086219440    3.10022173347604   11.26908380608981
H        10.63469280412039    4.66214650666954   10.89235207107681
C        11.01832998344163    3.09340615765627    9.44502895797460
H        11.32961854620494    3.80778156244334    8.66562360351974
H        11.90736137641143    2.68970730432073    9.93286678639175
C         8.21971503881873    3.09552097974624    9.19809556090508
H         7.31399362126658    3.43610379307823    8.69071738427791
H         7.93800195241803    2.37288760253285    9.96974410558952
C         9.17627907847847    2.42029632625572    8.20914156883709
H         8.72316242153920    1.52234287073984    7.78737415926348
H         9.42371108634099    3.11645580073669    7.39269080326379

