45
CSD_code = JUPBUR | q = 0 | S = 0 | Stoichiometry = C21H19FeNO3 | MND = 7
Fe        6.06411661600737    0.84125112008754   12.09023625037102
N         6.84608130714076    1.69438888162659   14.05087947724862
C         6.05992333536293    0.69938051424643   14.41990610282423
H         6.38628987142935   -0.06587443282542   15.12793313215215
C         4.77801616029218    0.61982911819550   13.81816938655003
H         4.12629794160291   -0.21160025485469   14.05223609735199
C         4.33696507853039    1.75622128600788   13.07173112722650
H         4.69161462200319    2.71976304095110   13.43756714878871
C         3.01164505736891    1.82428408958079   12.45390851845480
C         2.44591004883088    3.07310033956819   12.18758081033030
H         2.99806170538364    3.96697277729475   12.44199408712228
C         1.19911603722694    3.17970014917888   11.60313166358707
H         0.77974879105950    4.15533570633406   11.40517310035481
C         0.48781544925689    2.03905080133819   11.26922171675506
H        -0.48623804460155    2.12031114876025   10.81055035992975
C         1.03718367339158    0.79228071314716   11.52193038834485
H         0.49014162091452   -0.10104697851394   11.25792286705508
C         2.28456025562883    0.68378674235563   12.10421246165102
H         2.70438093129457   -0.29635075309822   12.27794278273881
C         8.05310319240049    1.93077562964536   14.70050504861108
C         8.13323019180276    1.88272304710550   16.10496837927615
C         9.35212281104324    2.12827173351419   16.72292998240142
H         9.39791981470751    2.08324200822845   17.80249684179330
C        10.49661169872343    2.42985313470656   16.00771227990862
C        10.38311265341612    2.54919661437274   14.62892568158957
H        11.25363411060407    2.83109444245750   14.05327156261705
C         9.18831467133203    2.32880545734705   13.96957796583193
C         6.94092648462393    1.66666168486761   16.99838662853209
H         6.00807011926935    1.91438752974997   16.49544481095820
H         7.03381117364553    2.30067088762162   17.87912755683660
H         6.88373159757227    0.63439626750875   17.34538367483858
C        11.80934201190929    2.67112494861558   16.68851202192518
H        11.75447149434306    2.41194926827473   17.74283408101504
H        12.09053963320649    3.72102502882606   16.60566380492354
H        12.59530221517777    2.07910685016294   16.22221719240587
C         9.12687457848821    2.52837278529472   12.48642061418731
H        10.07471304013935    2.91047497139316   12.11683353722330
H         8.34209525800987    3.24001219059636   12.23767115439606
H         8.90657026517649    1.59297748031397   11.96861349823773
C         7.34277073461835   -0.36624461203312   11.79729269511316
O         8.12909460970376   -1.13994589388283   11.47747820359841
C         6.27616059215959    2.24712661498768   10.97438974049751
O         6.33488900185899    3.03294353231590   10.14556915429755
C         5.17849377425360   -0.05061798467267   10.87780079485387
O         4.65576381368603   -0.62236762668613   10.03274561528628

