41
CSD_code = JUPHIL | q = 0 | S = 0 | Stoichiometry = C12H16N2O8S2Zn | MND = 6
Zn       16.94443040666518   -0.23971244304897    2.89017115252817
S        19.22829885872460   -1.29508908611651    1.67556825120719
O        17.75684016257577   -1.43348444309068    1.66106002962023
O        19.91682759239642   -2.46060499092150    1.20785447692119
O        19.64533920086723   -0.03986542221834    1.04690608587999
O        16.20604970102635    1.47858317148989    4.08707921716997
N        18.66892434523383   -0.26204940419063    4.00229038370328
C        19.61155643596843   -0.99516073814664    3.42705976201984
C        20.76657825640284   -1.40676644970243    4.08315850732373
C        20.87607065106160   -1.06390860225408    5.43108908524138
C        19.87773882337357   -0.32212913746627    6.03903406858719
C        18.78719292503512    0.07210822990548    5.28328971990533
C        21.84739850029393   -2.15453203997110    3.38260930105510
H        21.74287805040741   -1.38060778252478    5.99360228778511
H        19.94442215738913   -0.05196462590075    7.08126261792696
H        17.98274082994567    0.66374375855849    5.69199379699442
H        22.45643340288288   -1.45498498803484    2.81029530634962
H        21.42120038849279   -2.85487590316485    2.66999760850892
H        22.48562442774485   -2.67169459609484    4.09488226396693
H        15.43943616417508    0.99151860570585    4.49999337070807
H        15.80753421539703    2.18119125162650    3.56561294806976
O        16.13121758424592   -1.43349560811508    4.11922887295587
S        14.65991903462659   -1.29330499382389    4.10502944911944
O        13.97001851231526   -2.45747471177342    4.57391613258911
O        14.24431574780944   -0.03705001126749    4.73265302672405
C        14.27727573618689   -0.99426547540794    2.35323107420718
N        15.21971824519294   -0.26065642053362    1.77834345583571
O        17.68448926271513    1.47732434494231    1.69299072868335
H        18.45043976364370    0.98961015832075    1.27961280855789
H        18.08360815457925    2.17969162240233    2.21434248945553
C        15.10160121324155    0.07353007318115    0.49731853092111
C        14.01154628563433   -0.32136058640905   -0.25879891367927
C        13.01375528706111   -1.06426622090044    0.34861321055601
C        13.12303846395582   -1.40707280070105    1.69659590944248
C        12.04260889673533   -2.15604635844943    2.39668801651517
H        11.43214502365695   -1.45672080384341    2.96799275336608
H        12.46934451706090   -2.85541484635879    3.11011100167464
H        11.40585695114856   -2.67447932034084    1.68383371777326
H        12.14744309074167   -1.38167057188375   -0.21425741659776
H        13.94482512132793   -0.05091073298664   -1.30093580224131
H        15.90581761206382    0.66571889950510    0.08898071266805

