95
CSD_code = JUPKAI | q = 1 | S = 0 | Stoichiometry = C39H51N2P2Ru(1+) | MND = 8
Ru        7.40595202623637    8.12628252460427   14.63252491723450
P         8.48143334536313    6.26051383154154   15.24204009242279
P         8.17907550096825    8.91158679962077   16.57601815806882
N         6.70210940882722    6.72049132508049   17.25348054903529
N        10.17611560451798    7.17561894655613   17.13154813538660
C         6.13349199341442    8.85138200733271   12.83777939992784
H         5.07630290618315    8.80118052003428   12.63542393539897
C         7.09713881055715    7.91757854537776   12.40004496793130
H         6.89099401687645    7.06575256359503   11.76621676514238
C         8.39139081434215    8.47232315692220   12.65787311305217
H         9.33179674058169    8.08657228207120   12.28624834617052
C         8.21373887665357    9.71489345167967   13.28718326987773
H         8.99657721529543   10.43663991772264   13.48009459161798
C         6.80831173563990    9.94112874849687   13.43440007635847
H         6.34723250704833   10.87906160214670   13.71299678510037
C         6.03192847569877    7.27329801139879   15.98782037919528
C         4.72208518168641    7.10675571644336   15.86529208521176
H         4.09536064384725    6.59360078243625   16.58668319566098
C         3.92888118541097    7.61654150150672   14.72560414291050
C         3.58565066292445    6.77551018878066   13.67316919124464
H         3.94791122079097    5.75747016710091   13.66358007511996
C         2.78568489673480    7.23888756490982   12.64316234411940
H         2.52782286060145    6.58178364478617   11.82615094888614
C         2.31081005825162    8.54022723432374   12.66258437596421
H         1.68354096674621    8.89890025921790   11.86087080369965
C         2.63577946933598    9.37743762082756   13.71747284149413
H         2.25943651857781   10.38921900561110   13.74039280663703
C         3.43923062756167    8.91790778797412   14.74643262398945
H         3.68582898720967    9.56592263015345   15.57529724088406
C         5.76665600612738    6.12538392946970   18.25505070830824
H         5.01077361199858    6.87974547149984   18.48471426697934
H         5.27869019994170    5.26694534866698   17.78759847017693
C         6.42552816296782    5.68790670555565   19.53850751116726
C         7.00087091326301    4.42677846472102   19.65725849223577
H         6.99166490338194    3.74483729512676   18.81933885344246
C         7.56079856217692    4.01806164217440   20.85527182305783
H         8.00384669632103    3.03712112693208   20.93171912042762
C         7.53267645664388    4.85468534539531   21.95800931337320
H         7.95607364413651    4.52821483162206   22.89497649334026
C         6.94119189412122    6.10270535990464   21.85690236560943
H         6.88736428201695    6.75055849059330   22.71843713706972
C         6.39818015935376    6.51818444486092   20.65420178557843
H         5.92551391219030    7.48789485922874   20.59331212323015
C         7.65083412036246    5.68586371272498   16.80641973166956
H         7.07007763815125    4.79203936457091   16.56713605852714
H         8.37681637161620    5.47300154253871   17.59578815882829
C         8.52451967037877    4.67223892272211   14.23202945413776
C         7.07467460392260    4.37445142327409   13.84134185940904
H         6.54956605461996    5.30337696745014   13.60434730449069
H         6.53725027174118    3.87015989012209   14.64227238563250
H         7.04650719436005    3.72786627630647   12.96693564656849
C         9.34839101647680    4.97029880927831   12.97952054692256
H        10.35231244942693    5.30176691136578   13.24281398633308
H         8.86937653080812    5.74139502834568   12.38225693333583
H         9.43775761537863    4.07383644133703   12.36872047086158
C         9.13668046282784    3.48280732246485   14.97269687588149
H         8.92077367909807    2.57468252978776   14.41242327880228
H         8.73000586135059    3.36136313952182   15.97451799405095
H        10.21801145294640    3.57049189245153   15.04277509301520
C         7.40542169642988    7.85025310893168   17.89201908205255
H         8.14717719248608    7.48623199903288   18.60969258090302
H         6.65209847644918    8.45337906653728   18.40320386017342
C         7.87925935837063   10.63371845950776   17.27223599595347
C         6.37067167105308   10.87878796721263   17.18654361487744
H         6.16278273982507   11.94662103452900   17.18938714991512
H         5.84117175730312   10.43761896604428   18.02867985068494
H         5.97397982782340   10.44983375829686   16.26282590843131
C         8.61106212139301   11.61492633557695   16.35700390935018
H         8.17767266860748   11.60019562894109   15.36027816617132
H         9.66964956612089   11.36695211596117   16.28595816431706
H         8.52602991058033   12.62662174545908   16.74931284790153
C         8.37596553191306   10.80194068828099   18.70931756449749
H         9.45842003237074   10.89418925152469   18.75067644641470
H         8.07785355427787    9.97763736772917   19.35420437009521
H         7.95593943082510   11.71896870966312   19.11893507752305
C        10.21154020926088    6.42482528677989   15.89228237404232
H        10.60395467276515    5.42484757455592   16.09756758729419
H        10.84498539762522    6.90164668673124   15.12428655068770
C         9.96975937519520    8.59671211557662   16.92403578466637
H        10.56931526292330    8.99033892057305   16.08474355687768
H        10.24941084200124    9.12427367654062   17.83905853417919
C        11.36314057768386    6.92319057988102   17.95818189638770
H        12.27399405778639    7.31039185242491   17.47684684646882
H        11.46629344415299    5.83941884993893   18.06397336277325
C        11.19896047500869    7.53886060026233   19.32159321220702
C        11.94121393815363    8.65246528313935   19.69513776278060
H        12.67304966090371    9.06098169380891   19.01233990915271
C        11.76265088474876    9.23409335467353   20.93844660827244
H        12.35051620205427   10.09486390562944   21.21797917633387
C        10.83512427376522    8.70890406496330   21.82135026647364
H        10.69708766590919    9.15855920793309   22.79234369011518
C        10.09461808179568    7.59627536453961   21.45932026897072
H         9.38114863354511    7.17189858247852   22.14846539921400
C        10.27381048354928    7.01527533132555   20.21678965825378
H         9.70527266936782    6.13456903676146   19.94940256537802

