73
CSD_code = JUPPUF | q = 0 | S = 0 | Stoichiometry = C32H34Cl2N2P2Pt | MND = 4
Pt       11.76661788064251    7.42290082183368    8.56146486561801
P        10.01456673067378    6.28384042320073    9.47140247306681
P        12.32260938928491    8.49015293497160   10.47374419925391
Cl       11.10230966548431    6.51118308661121    6.56129329303112
Cl       13.37922019035638    8.62534995296478    7.46894437956229
N         9.88667819810055    6.00294495734831   11.14312190293968
N        12.39422046183152    7.48010014793377   11.81357322665128
C        10.97598241528345    5.50176516924598   11.97615298379671
H        10.75281793894592    5.84592847751401   12.99780103033917
C        10.82776558881512    3.97258507714985   11.92120030213137
H        11.35360643929119    3.59156988420597   11.04546287247279
H        11.23145497870160    3.48681157538910   12.80675340818180
C         9.31270335332358    3.76102404049497   11.78085441680194
H         9.08517855066376    3.11827814865736   10.93166393815718
H         8.88250392491648    3.31153112068017   12.67432510738229
C         8.75393129008728    5.17800058468380   11.55809970511080
H         8.36633339591229    5.58287996427645   12.49962678592192
H         7.95522801417102    5.20688905010217   10.81897191838855
C        12.35569001327327    6.03212804507044   11.60351272720375
H        12.53828217043466    5.80819328932625   10.53957973083942
C        13.46684423129821    5.44792494488620   12.49740285823324
H        14.06417303196066    4.70964819929391   11.96771362167515
H        13.02700138390466    4.97116779672037   13.37365369580846
C        14.28815494752320    6.66199107201725   12.93255008623092
H        15.03848149641469    6.90968742563643   12.18121530232962
H        14.78131754305646    6.51269418082653   13.89065994289019
C        13.22843807310776    7.75762912547522   12.97319310064196
H        13.64117797796418    8.76593426009615   12.92273571831143
H        12.62713627996682    7.66540483395180   13.88640895141678
C         8.34480285668536    4.27165196808235    8.34862284033809
C         8.14686311363199    3.02479888205447    7.77979514996067
C         9.22561005321762    2.19839867131230    7.51576020374829
C        10.51259931316168    2.62197870723015    7.80952145102048
C        10.71336168610190    3.86527208714475    8.37593284936778
C         9.63165983967739    4.69494997349966    8.65524098800011
H         7.49884461560204    4.92033520465164    8.53267462311312
H         7.14521088197759    2.70128315569893    7.53619500624005
H         9.06542540645943    1.22892150964406    7.06762461767579
H        11.35620176244171    1.98601342420460    7.58509246949010
H        11.71685139216131    4.22464864881191    8.57425484234594
C         8.07959017120712    7.48285185823687    7.91027295128966
C         7.01817548923393    8.33205178612354    7.65886725707071
C         6.41686798153150    9.02094595866048    8.70046049888127
C         6.88564458066272    8.86565257553106    9.99446542974228
C         7.94899867272851    8.02020540156871   10.25272556658503
C         8.54188934424685    7.31111761606169    9.21362313105947
H         8.56714057925224    6.95454944077779    7.10238939697957
H         6.66163370450730    8.46053131579219    6.64752695417543
H         5.58738466646081    9.68399136897771    8.50229375351909
H         6.42515468286890    9.40972990308376   10.80628979474263
H         8.32947818294425    7.91255341241921   11.25701728520055
C        10.42202695099575    9.84571358637992   12.08944496001449
C         9.36310001894839   10.72278297504373   12.24863915304578
C         8.84005980705101   11.38947567321814   11.15265729148093
C         9.36717410433111   11.17523552674869    9.88834517966173
C        10.42219147618101   10.29848128329748    9.72491765807374
C        10.95998858010302    9.63789549478495   10.82665274296652
H        10.83162544672700    9.31613112588881   12.93701748255154
H         8.94375530929338   10.88801011263896   13.23099982452556
H         8.01559391821205   12.07506721499745   11.28313865661069
H         8.95020587492014   11.68693608212373    9.03398240698066
H        10.84624335182299   10.11192038062073    8.74243188644100
C        13.77144669962636   10.87041149199946   10.95932462464006
C        14.94599886968356   11.60251385858768   10.99821483578693
C        16.14739574000435   11.01292997425386   10.64278777250251
C        16.18103215769866    9.68610205910500   10.24142327246237
C        15.01267449592692    8.95112224104147   10.19983252825751
C        13.80490129971023    9.53924736667851   10.56531082220596
H        12.83068309839801   11.33139629744521   11.22712744026367
H        14.92099623717980   12.63928229855005   11.30078222448015
H        17.05903155360884   11.59150345726557   10.66769400791954
H        17.11651080671118    9.23302117838762    9.94854208569442
H        15.01464967097798    7.92574886085281    9.85350353878320

