61
CSD_code = JUPZAX | q = 0 | S = 0 | Stoichiometry = C20H34F3NP2Pt | MND = 4
Pt       12.85293049574531    8.28677664462986    3.61315140726699
P        10.57619780696605    8.23413359012899    3.67077797786237
F        13.92729529103109   14.02294969810164   -0.18919116848291
N        12.85297700604924    5.85584736802428    5.62570222324696
C        12.85317232416104    9.86237542981904    2.31331379229632
F        12.85258589721007   12.90504415304143   -1.67987910996154
C        12.85322960043324   11.18406755339644    2.77235621689896
H        12.85343727937789   11.38156586988335    3.83948722313176
C        12.85305739131530   12.26262789037886    1.90930866122797
H        12.85314095444578   13.27588081170908    2.28639656042710
C        12.85281016099997   12.04181958469621    0.53707447187356
C        12.85272282531413   10.74540739755818    0.04304149540093
H        12.85253814263271   10.57546305116013   -1.02407986381533
C        12.85289278503532    9.68196438541856    0.92729723032374
H        12.85278907604729    8.67740758778419    0.51732660546593
C        12.85261599391511   13.22458778396558   -0.37600579581808
C         9.65789344330257    9.48459405716348    2.66885830863562
H        10.07054154803542   10.46140739041480    2.93707622435206
H         9.94250555794847    9.30449077727092    1.62782154519614
C         8.14205268499246    9.49637629647496    2.81008381997819
H         7.71072573452716    8.52731912174699    2.56995786207815
H         7.72008805443680   10.22965563269619    2.12538697692777
H         7.84090169447634    9.76992892599028    3.81833912668057
C         9.92777082217102    8.42007398081781    5.37858759210084
H         8.83628437524485    8.45678302161787    5.38911422652625
H        10.25146128973499    7.53215804180853    5.92913430375144
C        10.54686121688845    9.66677810222718    6.00023514112604
H        11.63290871954427    9.62386431123903    5.87142705657467
H        10.32769376748651    9.72749809146606    7.06405954402933
H        10.17881086631836   10.57056980646596    5.51788893331227
C         9.91347855923995    6.61141066232489    3.12073755801872
H        10.18945864616713    5.88730359962517    3.89248602758306
H         8.82462204413651    6.63186591751189    3.03664502688917
C        10.57499465776908    6.23467003065361    1.79991452421642
H        10.24501708262328    6.88804690956373    0.99430690367057
H        10.34971912653376    5.20631550216038    1.52570594232496
H        11.65973832852335    6.33638396905052    1.90581245919875
C        12.85220228410330    6.74425478547814    4.89185742739233
F        11.77774348496702   14.02267098072756   -0.18908187543070
P        15.13020879087295    8.23413000182331    3.67079569163611
C        16.04848722674174    9.48527293186416    2.66974215548268
H        15.63576743504437   10.46189148402150    2.93855733013898
H        15.76392740199509    9.30577862550008    1.62858577045705
C        17.56430203895101    9.49696816195907    2.81112383568843
H        17.99563243369661    8.52799445743589    2.57066085644894
H        17.98632032195083   10.23051759246467    2.12675312088477
H        17.86534509901888    9.77011709766375    3.81952101346037
C        15.77864962111678    8.41862476876249    5.37875795948082
H        16.87012229396534    8.45560372400723    5.38923651532929
H        15.45520850195845    7.53013701566816    5.92853080583554
C        15.15927188646315    9.66459825586293    6.00158321303299
H        14.07320514914976    9.62140002543242    5.87301145314732
H        15.37865997958133    9.72451237403177    7.06540694277609
H        15.52689466834941   10.56891452631985    5.51989464835246
C        15.79256397182703    6.61169808494696    3.11945615319809
H        15.51678847801394    5.88707312641535    3.89079477914357
H        16.88138928387892    6.63212946215760    3.03500495264031
C        15.13056061705028    6.23592922670636    1.79859693187076
H        15.46035079553530    6.88982174923811    0.99333253235542
H        15.35562114454637    5.20773628576630    1.52360473588054
H        14.04585584038620    6.33771230777010    1.90491602027579

