175
CSD_code = JUQFIM | q = 0 | S = 0 | Stoichiometry = C54H98N2O13Si7Ti | MND = 6
Ti        8.15977373851955   18.03401892395026    0.18888978272721
Si        9.82697096464633   18.88569127316131    2.85960759970607
Si        7.02178889284748   15.56369143820866    2.04968414779604
Si        5.76343311138938   19.65445725816570    1.68420747448876
Si        7.49781643851865   20.47431378395213    4.11155487836111
Si        8.84969389796974   16.36845271808810    4.38009012193209
Si        4.77370084687574   17.15326712128160    3.26508658161787
Si        6.52291743863088   18.00698424966864    5.63575022480920
O         9.35697052090309   18.63314828889803    1.37067476623368
O         7.35455655978675   16.61779575929629    0.91924944603812
O         6.82465291037748   19.25457486459518    0.59298782605481
O         6.41624267786578   20.49892972192944    2.92174926882350
O         8.96949070479291   20.06448124380795    3.59813951026364
O         9.78698832512918   17.53344945556255    3.77768327315918
O         8.17944337516654   15.49391682239808    3.20322795967802
O         5.57843620569841   15.84765405086476    2.76305199368279
O         4.91761907983067   18.35899689444283    2.21197177795213
O         6.99153955513519   19.52249068031684    5.32325542561295
O         7.73752491710434   16.97047508448289    5.39180055609971
O         5.22987232489424   17.59568535104441    4.75613327866521
O         9.31113957625742   17.18363115132034   -0.86285146781292
N         8.80489021708367   19.82375130811259   -1.14926402114517
N         6.83080981251075   17.66197725561636   -1.67425073575953
C        10.38204684274425   16.43093316311231   -0.63031701883225
C        10.66061003564325   15.91068090519494    0.64173053519023
H         9.97884729214120   16.13812978938559    1.45084630156970
C        11.78113460017170   15.12664986628191    0.83845333281094
H        11.98637225912274   14.73036366871363    1.82117772401548
C        12.64417564827573   14.83797256682753   -0.20817684925976
H        13.51707658153923   14.22527136695986   -0.04203097659506
C        12.37394913300061   15.33805773464656   -1.47000170298601
H        13.03571888830162   15.11521376423900   -2.29476799512828
C        11.25702951638244   16.12247666067229   -1.68399921651077
H        11.04343179713235   16.50642936104091   -2.67331059494377
C         6.94148410632629   16.26914508312127   -2.11334069768561
H         7.98264100196336   16.02007482844332   -2.31810258857081
H         6.33995946975539   16.09588033617162   -3.01956876927183
H         6.58538726268885   15.62295375781245   -1.31121836175263
C         5.41451125722429   17.91859824417941   -1.40800383166509
H         5.10732842292438   17.34794457424242   -0.53157881053158
H         4.80204138088202   17.62820104553840   -2.27633948949271
H         5.25002630540970   18.96915089584378   -1.18729645246558
C        10.10138421954558   19.68538766378809   -1.81321368961394
H        10.33603390648514   20.58812527041016   -2.39929997615417
H        10.10850152597187   18.82161275770996   -2.47393877936569
H        10.87228630646710   19.53701535428422   -1.05681422761732
C         8.86314670978064   21.03865820717026   -0.33097306727046
H         7.93914722023668   21.15331592841839    0.23240123648690
H         9.03084061103415   21.92450794887246   -0.96313402287106
H         9.67846617805237   20.94217940861909    0.38500937238967
C         7.72584648850309   19.93128933888003   -2.13528775662272
H         8.02041407776738   20.60175662137366   -2.96265630130801
H         6.85806623499324   20.35956484923900   -1.62801433563202
C         7.33751620215672   18.56505085896177   -2.71195853864777
H         8.21927217643083   18.10061869889831   -3.16258341718691
H         6.58290834420133   18.71131317220406   -3.50425684361313
C        11.65041632084594   19.46413862363308    2.89856066587212
H        11.71995345665935   20.47068361713353    2.46906577795670
C        12.20662975850228   19.53538243830314    4.32168006861320
H        11.59092906634154   20.20761670381133    4.92038429697667
H        12.14746105653557   18.54396096559548    4.77209097838173
C        13.65779036229667   20.01074409335501    4.32270233318289
H        14.04011358245748   20.04026821487138    5.34583555545492
H        13.70849058728546   21.02454615183180    3.91800951751211
C        14.52416468661985   19.08618660982710    3.47242522668440
H        15.55708561010200   19.44312003474009    3.46434562186066
H        14.51868622826654   18.08520191655756    3.90857435742786
C        13.98310169187095   19.01431434492768    2.04741090255104
H        14.59318944995810   18.33267540063920    1.45005412142072
H        14.04122757103333   20.00517128728135    1.58991380892578
C        12.53228201416749   18.53962445426529    2.05603064967551
H        12.48487617781793   17.53262145797788    2.47182537735926
H        12.14227048492149   18.48421469820771    1.03639643252523
C         6.93357859693600   13.79235755735256    1.33671240033484
H         6.11095801095472   13.72989001303208    0.61414765928417
C         8.22880660623627   13.45039453439292    0.59687202615004
H         8.42442808231641   14.19900313572560   -0.17529097874441
H         9.05740375947582   13.49177499666200    1.30480393170078
C         8.16213877607155   12.05477557375933   -0.01809169443348
H         7.35805434537340   12.01863648339480   -0.75742059010042
H         9.09997577728144   11.82990635621239   -0.53118102819472
C         7.89793335037517   11.01298538784164    1.06512279256093
H         8.73080119982801   11.01177078292885    1.77095729738210
H         7.83257216096443   10.01675206618322    0.62039650844469
C         6.60726220615488   11.33879430650193    1.81082672178456
H         5.76631909611993   11.28397740468575    1.11516754710018
H         6.43799095454546   10.60033069176480    2.59791614819503
C         6.67560659538436   12.73941460953302    2.41581277666323
H         7.48164367114728   12.78288473284256    3.14900720791050
H         5.74381271736928   12.97024716975398    2.93304995473175
C         4.40031909253596   20.84655327906247    1.04394941765065
H         3.83831752278267   20.37286800064929    0.23016264475423
C         3.40290736821740   21.15598922938571    2.16274736001434
H         3.93996833716175   21.61867139839905    2.99129197860401
H         2.97341413023486   20.22241806046001    2.52635041176674
C         2.29688316503576   22.09206362762540    1.68175919428102
H         1.72839398788230   21.60627026486684    0.88476951135381
H         1.60722532733194   22.30599842285632    2.50129960761321
C         2.89262720719706   23.39305710280689    1.15367925322597
H         3.41845219457265   23.90322870572952    1.96306071078933
H         2.09915915496684   24.05459714465333    0.79718496442340
C         3.87454318368798   23.09956740353227    0.02462366642666
H         3.33837549520350   22.63440454729545   -0.80656990977587
H         4.31339820780788   24.03192509385142   -0.33973721478593
C         4.97629344650992   22.15855053040769    0.50772910558766
H         5.66842847351544   21.95380894908991   -0.31322406933702
H         5.54302933670659   22.64090339982308    1.30521763179804
C         7.65225098515523   22.24100733016913    4.79404003757875
H         6.67338275936605   22.57927440066267    5.14808134565560
C         8.61758355559585   22.29627177925407    5.97927398357766
H         9.59877047007529   21.95175724968986    5.64972182520043
H         8.27232572745743   21.61638024183843    6.75866111816666
C         8.73381120001214   23.71408827380269    6.53309455382383
H         7.76013242826265   24.03777175803824    6.90793904951110
H         9.43704403260582   23.73185064036939    7.36902966218318
C         9.19839209739657   24.67542678982398    5.44369305035898
H         9.26425984537725   25.69102031426848    5.84194693887765
H        10.19417989210079   24.38154960717473    5.10529626910818
C         8.23447994364770   24.63800823825514    4.26211305596114
H         8.58056266333982   25.31569128668808    3.47757711650492
H         7.25041077453677   24.98057441988705    4.58998882603950
C         8.11927510606885   23.21812206719696    3.71287379530744
H         9.09063302352847   22.88985015970448    3.33953017905479
H         7.41947232701637   23.19584575551520    2.87606631397921
C         9.95462655894253   15.22100295495400    5.41960200227754
H         9.34562176277321   14.39649494140618    5.80530609576540
C        11.08914819609243   14.61030959548343    4.59465320024388
H        10.66518896389503   14.05774240570171    3.75478156016484
H        11.70251965185647   15.41830587187739    4.19170164743797
C        11.95831700660358   13.68550890227985    5.44356508198214
H        12.76911657716523   13.27346743686546    4.83743952568084
H        11.35375583751010   12.85036221032741    5.80487146208563
C        12.53452561786332   14.44178349581772    6.63632872547312
H        13.14249015276144   13.77048753018649    7.24792511805463
H        13.18085370839043   15.24524904362691    6.27635452026393
C        11.40833531818925   15.03872855966647    7.47439460292019
H        11.82642473361076   15.59280678368565    8.31816183774061
H        10.79232669810740   14.23098963675128    7.87663759211186
C        10.54079664023290   15.96244820698542    6.62303713902156
H         9.72904479968266   16.37290670584584    7.22426305492673
H        11.14121459585590   16.80055788126972    6.26604153832583
C         2.93830034566280   16.67223019744974    3.35110433674107
H         2.36773261872105   17.51563072193555    3.75278253720955
C         2.37802278770611   16.35120674385766    1.96393081139577
H         2.94319256836184   15.51826013409774    1.54194721388963
H         2.51693304680780   17.21369557432879    1.30996832757250
C         0.89878959848131   15.98013506619473    2.03734268379949
H         0.33038502554525   16.83320562221794    2.41469457723758
H         0.52246655746805   15.74202210685339    1.03928241062845
C         0.69393722355815   14.78863002398627    2.96739979590797
H        -0.36808372608090   14.53754364141071    3.02701050943030
H         1.22227018310517   13.92208918584467    2.56425694366200
C         1.23629025680652   15.10623125987670    4.35723106091607
H         1.10195421638263   14.24386359461148    5.01435007113097
H         0.67349256036421   15.94108780562954    4.78108500035128
C         2.71478116530345   15.47912598923158    4.28145541007668
H         3.09077013282398   15.72239411157680    5.27574184757734
H         3.28826457646467   14.62945919586913    3.90839517786723
C         6.05487183172890   17.89610406845678    7.47132580451597
H         5.15171086365098   18.48748615953853    7.65333479061465
C         5.75176532377632   16.45124402388990    7.87596109557492
H         6.63686696504482   15.84062398574763    7.69168387415871
H         4.94625271238496   16.06138868379114    7.25239409380273
C         5.36516763912297   16.36022186580967    9.34999021721498
H         4.44968631062581   16.93137754900978    9.52100533651963
H         5.16618053895506   15.32035266644163    9.61977877925577
C         6.47912086512471   16.92066170095915   10.22850028219655
H         7.38052584165562   16.31872593256098   10.09527683089007
H         6.19052948815966   16.86581625484722   11.28111154628673
C         6.77762107711860   18.36576562963453    9.84220394750076
H         7.58704812047953   18.75726699233745   10.46297203550775
H         5.89083684101448   18.97757696077169   10.02326112144183
C         7.16213310178774   18.45546512411357    8.36763507725285
H         7.36016075432176   19.49229465907932    8.09407446884936
H         8.07828519773762   17.88837392653864    8.19534766026202

