92
CSD_code = JUQGAD | q = 0 | S = 0 | Stoichiometry = C38H35BF15NSiTi | MND = 12
Ti        7.17609668495758   10.19638115318193    4.61258446120959
B         9.35177793652821    7.48597375463666    2.89676150648024
Si        5.00047708780825   10.03120169882149    6.42970683638173
N         5.31734777826330   10.01406384838881    4.70137229818820
F         7.85020350651511    9.13524592560024    1.04081061708277
F         8.40454987694395    9.59616415887727   -1.52180520804912
F        10.54977373739248    8.37401647540033   -2.72831782646161
F        12.09422305799870    6.65619414664964   -1.26331351569855
F        11.55018578123675    6.18881794557302    1.30003756365971
F         9.10316369312744    4.97629453283648    1.39786147139480
F         7.15409584118889    3.18850630836300    1.53179548675396
F         5.02375165052963    3.55925183202523    3.21894151832901
F         4.95431784168557    5.83676299041766    4.76971103408696
F         6.86917083479896    7.61910600761825    4.67832621770952
F         9.32458246826382    5.52111195057971    5.14196490007415
F        11.38239413344852    4.83483243166578    6.65982195214968
F        13.86426692239033    5.92896061366415    6.24258239715229
F        14.18078653179688    7.75930349075806    4.22522752479529
F        12.13344995236176    8.44112795231034    2.68127335493476
C         8.87195492782816    8.93047935307268    3.55602630055857
C         9.60822155980303   10.18337938865557    3.18620905438770
C         9.00331927772366   11.37010235631291    3.05252829937997
C         7.53968840243262   11.60532548822937    3.14502701821179
C         7.20906799435192   13.09181152740425    3.09510759193043
H         6.15420533006844   13.27470048302744    3.29824346390973
H         7.43007255175183   13.49943732310959    2.10405229191915
H         7.80147993189640   13.64947944616849    3.81702546349710
C         7.92929117214976    9.57534920590620    6.85807447616949
C         9.11932024454700   10.28389011388039    6.55241853614000
C         8.77772377206522   11.60374537785261    6.20346866233213
C         7.35798683859358   11.72221724641022    6.26667219155413
C         6.82765747816309   10.46481941376905    6.74918328598768
C         7.90194608033821    8.18432772234121    7.41634981296674
H         6.89133250955773    7.79119181582397    7.43898133369095
H         8.28375888747407    8.19609683012086    8.43970042122107
H         8.52919564890779    7.49777913346738    6.84582336549941
C        10.52014202777541    9.76475551046547    6.68411616290107
H        10.99772738323440   10.20345770808407    7.56195263298561
H        11.12491013486559   10.02840121254963    5.81572220812121
H        10.53506308142644    8.68267226935067    6.80124588761345
C         9.77660521217184   12.69964186636369    5.99726141506439
H        10.62934557832671   12.34863706798520    5.41848604606278
H        10.15091728456604   13.03706416454640    6.96633529351326
H         9.34241255327112   13.55690644031181    5.48924373747659
C         6.59138203198038   13.01523763555728    6.32327157421335
H         6.20894033843772   13.16287812488286    7.33398571743253
H         5.74585380829417   13.00847127913915    5.63606687415229
H         7.23093227521534   13.86151224033639    6.08578015219066
C         3.77328294666636   11.36264318877753    7.07604935073355
H         4.05413407895753   11.68742377078030    8.07225261973705
H         2.77200042726849   10.95068964111843    7.14663097295373
H         3.72134693061731   12.24339328633861    6.44601232522523
C         4.40051093095501    8.39665387168201    7.23022383909697
H         3.31709244063814    8.34654531866912    7.21761320861415
H         4.70935394372575    8.33828235833372    8.26900894666829
H         4.76820288515174    7.51495784819694    6.71730721826055
C         4.29525085325862    9.85235703472230    3.67904437650050
C         3.83822009827758   11.23781956791732    3.18900898112643
H         3.02343967720807   11.13612597362122    2.47671607025684
H         4.66261350169986   11.75686153198143    2.70528361638916
H         3.49173867386180   11.82872027867047    4.03348245880165
C         3.07302429304389    9.09804951315513    4.22022029115722
H         2.35138991663029    8.94140409061393    3.42224053487209
H         2.59375016145490    9.66773501608718    5.00964131608785
H         3.37165275104436    8.13119435411408    4.61325180083276
C         4.83650300090319    9.05175988771527    2.48094617677090
H         4.05860043749141    8.95580506664157    1.72650492567066
H         5.12289715263436    8.04856721696042    2.79182078646508
H         5.68875278872898    9.54946898659385    2.02016635043807
C         9.71352669114528    7.68688080556030    1.31327122804062
C         8.94154393699390    8.52115889509084    0.51421489282929
C         9.19765479849467    8.76773746336068   -0.82761431034392
C        10.27801776943159    8.14830287490688   -1.44027429492851
C        11.06156977459218    7.28022257673190   -0.69002526654434
C        10.76831557095339    7.06070564972713    0.65216367371446
C         8.10613886528954    6.40506364140523    3.00110858493923
C         8.09849426343876    5.23429023554157    2.24120389827699
C         7.08799061775041    4.27833900589498    2.29877574638660
C         6.00614674673948    4.45841288873930    3.15215764141413
C         5.97537248284116    5.60409258515026    3.93281900573025
C         7.00439715163873    6.53245396682893    3.84024654350678
C        10.62919254054676    6.98300647927324    3.79414081785266
C        10.51853633018757    6.07749761996775    4.84396669729055
C        11.57967196768522    5.70817953368841    5.66417514209216
C        12.83509540374141    6.26219910390962    5.45976701400949
C        12.99089925999465    7.18540473752997    4.43383957728110
C        11.90370950376952    7.52548602586462    3.63809062811447
H         8.94924018274902    8.80065588776760    4.65009983308820
H         7.80392373419406    9.08868685386092    3.28245671732563
H        10.67733815396864   10.11366653582696    3.04878063563086
H         9.62118769851756   12.24033628212776    2.84300315624288
H         7.05130903059929   11.13277758608992    2.27140441015217

