106
CSD_code = JUQHAG | q = 0 | S = 0 | Stoichiometry = C33H60MoN12 | MND = 6
Mo        2.52055156136646    7.36717067316448   10.30797219595909
N         4.37631216604750    7.36765025238140   10.30760642065722
N         5.50241874475235    7.36920849838928   10.30562646474608
N         2.62040073351347    6.11684066944040   11.67061549543497
N         2.81093739277457    5.34981400736699   12.47773042232306
N         1.63190988348954    4.59873317231358    8.87435283835137
N         3.09103150958395    5.61908931025196    7.65716301095918
N        -0.51632956297360    7.45293713794184    9.22923774440532
C         2.45029747679037    5.68875383199387    8.85294382205039
C         1.75558149883254    3.87115385031958    7.70459368959263
C         2.66926413715020    4.51924024325347    6.93505049548975
C         0.90582788242200    4.18286630351984   10.05776100772323
C         1.62861964470180    3.02795566251241   10.75476208715492
C        -0.57132323246623    3.86105929279844    9.83100804567181
C         4.17494462535087    6.50704982553362    7.27678770596046
C         5.52659683414527    5.79727598692114    7.35979601787676
C         3.94603164782947    7.18698701482723    5.92746278598276
C         0.98413393796338    2.64511449916011    7.35545256984283
C         3.09010435097475    4.17300428647357    5.54898336600432
C         0.31741592222403    7.36616858667692   10.30722683307128
C        -1.83877618509012    7.42735840782320    9.63035329263283
C        -0.04852198453295    7.56289294176260    7.85846994019661
C        -0.62574896697134    6.48810259766246    6.93486143978891
C        -0.26978658770268    8.95970881056044    7.27050883115826
C        -3.04116578653162    7.48874050386560    8.74989643851226
H         0.94462424575498    5.05631043611274   10.71201883656695
H         1.65333513641187    2.13234243442350   10.13933695640515
H         1.12448585770099    2.78995009589338   11.68806618555573
H         2.65034267044077    3.31985023399248   10.98595932951054
H        -1.05699140224642    4.65269954848353    9.26720126600699
H        -1.06025888565473    3.79644469097798   10.80057445687239
H        -0.72072177089890    2.91595581502668    9.31930990415564
H         4.18725270734834    7.28759011505502    8.03726340402223
H         5.62523317438296    4.99483993590341    6.63342451302951
H         5.65950601522247    5.38542693920314    8.35772116089696
H         6.31765683812973    6.52115067070986    7.18482815727036
H         2.90913287399866    7.50376184281473    5.83967169700372
H         4.19793769978866    6.54444745782455    5.08942200026470
H         4.56944534580941    8.07524160108686    5.87437959591370
H         1.44320729239387    2.15974646169915    6.49779924469006
H        -0.04441048162922    2.88989164341597    7.08656588037906
H         0.96787897653118    1.92897504153283    8.17268572039137
H         2.60129442852896    4.82370476590727    4.82319863168620
H         2.80327204797802    3.14846914683352    5.32478798153778
H         4.16455393148384    4.25555896925584    5.41632747188384
H         1.03040812622000    7.39105811565575    7.92034738607547
H        -0.56454347294921    5.50958961913065    7.40106046473483
H        -0.03483403176613    6.45910421193798    6.02234438445697
H        -1.65723031360425    6.68625708575356    6.66051930767149
H        -1.30741564453015    9.27598555305140    7.33632668582956
H         0.02087261613709    8.95272053830632    6.22293559622458
H         0.34923167605853    9.69219148089142    7.77976669162435
H        -3.88117142311714    7.88656474008218    9.31477331987638
H        -3.31516962225836    6.49485389617313    8.39117057325457
H        -2.88585957159884    8.13195335097073    7.89008413279696
N        -0.51631993190593    7.28035355533419   11.38524976730928
C        -1.83877625396849    7.30634942324494   10.98418322394144
C        -0.04855833050409    7.17029700033303   12.75601774760565
C        -0.62558942134406    8.24512517428393   13.67971967201338
C        -0.27020313385847    5.77345881853001   13.34376243150514
C        -3.04127974377618    7.24544310851587   11.86452770522355
H         1.03043702378269    7.34179935899889   12.69423944185929
H        -0.56365385793654    9.22370203013972   13.21376180562815
H        -0.03510994114874    8.27359612227807   14.59252325675028
H        -1.65729583688964    8.04747510211285   13.95353205054792
H        -1.30784474106074    5.45731341999152   13.27748346121132
H         0.02009990267568    5.78027398594950   14.39143394424694
H         0.34895607625674    5.04099606473234   12.83463700505129
H        -3.88131424401756    6.84790171795034   11.29952615004644
H        -3.31500320416026    8.23943082686964   12.22315912243687
H        -2.88637811221977    6.60221108628392   12.72440433602585
N         2.61965037694804    8.61723460580041    8.94496572191109
N         2.80994519023576    9.38349990893773    8.13706613982310
N         1.63177723973987   10.13557115072297   11.74111067113011
N         3.09109896050537    9.11517961768183   12.95806084881826
C         2.45038443650882    9.04576368738949   11.76228766732228
C         1.75570876539289   10.86317456928246   12.91082437047304
C         2.66954664502987   10.21508683464380   13.68021161829861
C         0.90573919018838   10.55147204619150   10.55770000759305
C         1.62886330078922   11.70624699028998    9.86084920725350
C        -0.57138946364927   10.87338983935725   10.78438386991444
C         4.17469862094467    8.22679824737008   13.33844726410715
C         5.52662093053827    8.93596760324432   13.25494716733962
C         3.94580943016330    7.54733664139103   14.68800706391807
C         0.98417716811210   12.08908621717776   13.26018781110210
C         3.09100524723607   10.56170402416925   15.06598541485237
H         0.94452165942328    9.67805775820158    9.90338473862122
H         1.65350783685286   12.60184283261269   10.47630221777701
H         1.12504732443629   11.94428050900997    8.92738933205838
H         2.65062488767405   11.41420521925046    9.62998503055565
H        -1.05724837326098   10.08163315195250   11.34787844339436
H        -1.06019846578017   10.93842311152268    9.81477895270934
H        -0.72068410766725   11.81833623445878   11.29639767023903
H         4.18652259056178    7.44607123277041   12.57815848081512
H         5.62585975097008    9.73833626638633   13.98130904960316
H         5.65933118570229    9.34773856237639   12.25696143346976
H         6.31742337062257    8.21173082401510   13.42957928914536
H         2.90892529430678    7.23051930209969   14.77591476563490
H         4.19764103377384    8.19024249243336   15.52578640159704
H         4.56930727711975    6.65915232689347   14.74149283883717
H         1.44336660056528   12.57445674212931   14.11777646841447
H        -0.04426979361327   11.84411222280590   13.52928036732137
H         0.96764934707550   12.80527801595114   12.44300912215291
H         2.60255455328066    9.91128767307993   15.79226522953453
H         2.80429143137184   11.58632767448735   15.28993777810093
H         4.16553162427220   10.47921626333244   15.19812252662780

