96
CSD_code = JUQJUC | q = 0 | S = 0 | Stoichiometry = C34H54N2O3P2Ru | MND = 6
Ru        7.57185437839829   16.56969485271991   14.66452179567820
P         6.69726249657789   15.52348787869589   16.60747635794898
P         8.07292245895850   17.79901718842457   12.69392468505124
O         6.14531394164905   18.11464177429066   15.06510592109425
O         9.99952802064058   14.84888456099801   14.52172785127520
O         5.36243501259939   20.47049606653345   16.16664659348725
N         8.20943521351564   18.27846052242546   15.87634552206664
N         2.62548089615257   10.37205937624300    8.99246818238805
C         6.41894104419584   15.33560812731569   13.53689166505117
H         5.40829274595931   15.72909267758283   13.38996919769338
C         6.68436917376108   14.16651729570016   12.93860490076880
H         7.67692785844904   13.73506132382461   13.03652741968667
C         5.78021732903278   13.38062998917063   12.11620455725208
C         6.27873065714394   12.24813121844291   11.45657834871435
H         7.32016845372835   11.98748524568390   11.58347314634407
C         5.47766764388864   11.47052533989754   10.65325681693480
H         5.87860348769040   10.60297888958593   10.14854083428990
C         4.13031299220281   11.80228109915250   10.48491529246415
C         3.61310368590225   12.92328028561229   11.14038639483091
H         2.56985079336699   13.17631280390967   11.01356944897618
C         4.42592821219206   13.69390118632867   11.93906087766193
H         4.00402168564308   14.55300000862214   12.43878725861659
C         3.30060320029701   11.01454451053004    9.66362975360888
C         9.02857243730941   15.48376720355542   14.54665054033840
C         6.97412012532017   18.79412569785817   15.74859187771309
C         6.65031396440115   20.04871564999964   16.36691771712714
C         7.62055362063703   20.70173699493304   17.08128219822466
H         7.42281595104148   21.64725859626355   17.56238295480259
C         8.89591820783238   20.12880014575669   17.18835463659464
H         9.66912368643942   20.63103922439907   17.74662300941619
C         9.14364572730727   18.92884016644537   16.57677714210240
H        10.11588917050381   18.45767202440026   16.63833792551410
C         4.97805241138398   21.69387218408138   16.73813102361381
H         3.93567061223423   21.83604090902999   16.45817635296839
H         5.57576300163831   22.52438751349660   16.34715654275107
H         5.06087350282644   21.67010976714460   17.83010566386810
C         8.30873735019732   16.71719848018113   11.17079132065178
H         7.51336467591612   15.97066844867214   11.30368950160581
C         9.63692396784021   15.96650799022738   11.22788075034907
H         9.60877782447025   15.11903234417695   10.54457201722157
H         9.82276482182572   15.58738905231045   12.22810589256737
H        10.46265698483582   16.60750957680704   10.92876742677072
C         8.13677110173734   17.34620537694430    9.78797063668044
H         8.36664074894508   16.58794699081568    9.03986731236477
H         8.81181511696670   18.18205669426979    9.62811981658114
H         7.11721814187260   17.67563495476707    9.60889245343258
C         6.79348371409002   18.99955668090833   12.03100986583694
H         7.15277062556462   19.27506991315658   11.03270722428556
C         5.45377420149214   18.27778374154947   11.90737308768417
H         4.73066945132065   18.91072106923430   11.39338336338198
H         5.07178235129633   18.06246943072561   12.90330043454359
H         5.54829735145003   17.34295058941123   11.35775743048991
C         6.59730940215646   20.28929187100295   12.82459264904013
H         5.96070783456172   20.96177628766446   12.24860246503244
H         7.53386909670973   20.80696585825273   13.02136951907509
H         6.09548457592853   20.08981254453245   13.76570445526493
C         9.56477951238507   18.91970701347834   12.88818416395745
H         9.21077524691291   19.64686568497308   13.63464295653277
C        10.01175994066711   19.68208457645341   11.64430647660462
H        10.77477986323988   20.40837691198620   11.92415736439532
H         9.19145955434472   20.22229835213495   11.17859984091339
H        10.45098529987520   19.00740416915304   10.91424265931947
C        10.74733266727938   18.18632118216991   13.51744022794404
H        11.45882274447683   18.90746165789673   13.91847688920730
H        11.26675504819572   17.56847918467385   12.79134162491962
H        10.40610927935395   17.54817331080364   14.33187944676180
C         6.49810581626671   13.65908799220420   16.43251877996066
H         6.13670432402664   13.57044643844542   15.39837127932057
C         5.50370962418429   12.93926774357919   17.34384387800632
H         5.56850911200748   11.87079702231169   17.13990489051840
H         4.47754422027764   13.24127375218083   17.15463749763129
H         5.72787956315932   13.08788821544003   18.39638509928530
C         7.84913694060925   12.95050746925564   16.49482372929971
H         7.76003183158828   11.95317786797126   16.06670657500518
H         8.18748172552088   12.84204199671869   17.52241034909275
H         8.59783061293846   13.49477060186710   15.92782800401228
C         7.69497929375564   15.89135963042628   18.15293617346542
H         7.54095241521456   16.97459453270570   18.27240804737201
C         9.19103092482419   15.68310792162279   17.92626903267573
H         9.75890042127036   16.22409446939122   18.68252186542512
H         9.48030344306665   16.05645469124029   16.94429064621997
H         9.46206734723984   14.63360663501959   17.98837441975889
C         7.24800972026885   15.19507749309399   19.43507853534590
H         7.80220438891671   15.60703436664329   20.27839893637065
H         7.45881558679020   14.12986325047660   19.39076951492249
H         6.18822364520235   15.33777982137032   19.63020847496990
C         4.96678794688109   15.97719858470102   17.17006427640641
H         4.70931193138145   15.23073529245594   17.93039433335612
C         4.79845879246344   17.35780616040450   17.80033633145240
H         3.79400436078398   17.43180521427989   18.21851174064410
H         4.90014656929663   18.13781468871236   17.05282773471410
H         5.50696487312528   17.53972854370597   18.60577385698748
C         4.01218024872219   15.84594760942322   15.98593502240711
H         2.98040478181312   15.95788120725178   16.31857787601274
H         4.11487892936651   14.88151952084850   15.49160706352978
H         4.22677831204734   16.63395302771137   15.26685635568978

