109
CSD_code = JUQJOW | q = 0 | S = 0 | Stoichiometry = C40H61NO4P2Ru | MND = 6
Ru       12.64111361772778   14.16358983659679   10.00427909166805
O        11.99340968098731   14.57061613235004    7.99139501816154
N        11.12351088701479   12.84790648515509    9.10358982832919
C        13.99831299787513   15.67258800072004   10.19945276437472
H        14.10188563630595   16.24186125401903    9.27061903597824
P        14.36470259091836   12.82500508350282    9.06361077511312
P        10.95002126086911   15.69044639327458   10.68003391620480
C        14.75311795460095   16.07431782537219   11.22485268468911
H        14.69564579166520   15.53866798626026   12.16890629798756
O        13.03834190747366   13.09322473767765   12.75566132588997
C        15.69298849796397   17.19155422763687   11.23986860736652
O        18.39279792651657   20.38264907985224   11.34523359889911
O         8.66094242111685   11.81138908110648    5.95126346183305
C        16.41461677232891   17.45674992964746   12.40327589019128
H        16.26345623534913   16.82678635110501   13.26908060898636
C        17.31852046181624   18.50002332753045   12.48585497417980
H        17.85050649369911   18.66043661981302   13.41127372148285
C        17.52819597126928   19.32171345532035   11.38574896536207
C        16.81460885612825   19.07170091131974   10.21325155750920
H        16.98487693006933   19.71679483939749    9.36493690710233
C        15.91794705067476   18.03048169508697   10.14353566583529
H        15.38189750720855   17.86729696130743    9.22075952067008
C        19.13595319154713   20.67936018341943   12.49883862058035
H        19.74620811860401   21.54490402375680   12.24416778360650
H        19.79052594931978   19.84804113580246   12.78283704395424
H        18.48644740878607   20.93263719385289   13.34395519342038
C        12.92083149696225   13.54331338850925   11.69151411384826
C        11.17424910565685   13.59842756226081    7.97626223398178
C        10.35375593153781   13.29412888703053    6.86193121035634
H        10.43519399163729   13.92531762326328    5.99062170658623
C         9.49895830115197   12.21836850393459    6.93493688572810
C         9.47058879569154   11.45483615591019    8.11745438973849
H         8.80606920205807   10.61095485311358    8.18583540034780
C        10.29247625646712   11.81129964409731    9.15528766399197
H        10.28832182565028   11.24067331904994   10.07590531233474
C         8.63422446390490   12.54391207865481    4.74315950305966
H         9.63707787386772   12.54635724653477    4.28559515270761
H         8.34209212360570   13.58558009861608    4.93580689960891
C         7.65612160525898   11.89499602465671    3.80113498286256
C         7.61280219805886   10.51161620951870    3.68844377609225
H         8.27170263353772    9.91258502383356    4.29828915955426
C         6.72565835512750    9.90965814264074    2.81481912853022
H         6.69572399896070    8.83273848946438    2.73683595735272
C         5.87998701618206   10.68452203257239    2.03915477558612
H         5.18903310847937   10.21465059040962    1.35495872547665
C         5.92102422827658   12.06400433071418    2.14551145577381
H         5.26153675769797   12.67326399822519    1.54502576394971
C         6.80220933793808   12.66688525858820    3.02600944824029
H         6.82737339990575   13.74420007589691    3.11026725664939
C        16.04345505754227   13.09868130497628    9.87247253586946
H        16.03926379379804   14.18683577525448   10.02674467410873
C        16.10227431273762   12.45522898386868   11.25571580337868
H        16.92605570939378   12.88450191892213   11.82413962312116
H        16.26904355473204   11.38301197354720   11.18485819223315
H        15.18408100885167   12.63891044531136   11.80430073839576
C        17.30567808680600   12.73940684134712    9.08824093607986
H        18.16609244070849   12.91140336112738    9.73442427882608
H        17.43472006461062   13.36406166889746    8.20882356844069
H        17.32237402180934   11.69549461338261    8.78787731358634
C        13.96837502152274   10.99103940330162    9.07234933975778
H        13.13774135956350   10.93241203356965    8.35307737478691
C        13.41296653701766   10.53443015542953   10.41903488633856
H        12.92890892730170    9.56430785302541   10.30970865353412
H        12.67587128797952   11.24930531412445   10.78257165587037
H        14.19646872515150   10.43957128161696   11.16473880269541
C        15.08039753086712   10.05413484479797    8.60923925736547
H        14.67968764755782    9.04612687803207    8.50171478962018
H        15.88214017405056   10.01406143544026    9.34174755970931
H        15.49469214395289   10.35317078826167    7.64971864293652
C        14.83496506632235   13.07331658500437    7.26413193065903
H        15.78644140025134   12.54798418541486    7.12601957083412
C        15.04296380931381   14.56577241581585    7.01861547207258
H        15.44237924970373   14.73513908099302    6.01861125033198
H        15.73193418843992   14.99483000106081    7.74410481342423
H        14.08716251717652   15.07986756666545    7.09933367036530
C        13.84817362721390   12.51367815959705    6.24266396025459
H        14.21383689857802   12.73761025999698    5.23995828590497
H        12.87068552306187   12.97215814199755    6.34955194124780
H        13.73916359362997   11.43431533044253    6.32215371115305
C        11.46971293793305   16.82265014249926   12.09307211456446
H        12.51628908355372   17.03404019101714   11.83328989773975
C        11.48091613646422   16.08077865231121   13.42779080586783
H        12.08323204494945   16.63329535226675   14.14759093364418
H        11.91201708479130   15.09126793201868   13.31855700686199
H        10.47683194125344   15.98968863616656   13.83524780432228
C        10.74816421645599   18.15977202771499   12.26419574499877
H        11.13975723487138   18.64377916576732   13.15856100884455
H         9.67697553403827   18.03623402001373   12.39872681354391
H        10.92645686993664   18.83299794498815   11.43052650552562
C         9.33916023303022   14.84416242977017   11.13860792188283
H         9.01801530507558   14.42559773821991   10.17270902184642
C         9.56600247243582   13.65995521960560   12.07602299881173
H         8.70509165124528   12.99280247933126   12.04549430973574
H         9.70557804401210   13.98421355809118   13.10278421943367
H        10.44859916056978   13.09966317762098   11.76839412124652
C         8.22657794680924   15.74193288288988   11.67246302964440
H         7.30601230698277   15.16370717847731   11.75240813988058
H         8.03405656578053   16.58839454263837   11.01817566683117
H         8.47089574102146   16.11281297099866   12.66429169455916
C        10.34420249576027   16.97342917138977    9.45257855984621
H         9.76373878204905   17.69369994648127   10.03950647376010
C        11.55670238503604   17.67417071192842    8.84479517564208
H        11.24159479001857   18.52640900697579    8.24271807726866
H        12.08676051124507   16.97524938079276    8.20098311123591
H        12.24218360427782   18.02578421724501    9.61389332014172
C         9.44232865388014   16.45575144396754    8.33520532038843
H         9.11989803299748   17.29967976329825    7.72426274156065
H         8.55132107605549   15.96024071379287    8.71422557484052
H         9.98076975235895   15.76753851223415    7.69293489088935

