100
CSD_code = JUQJIQ | q = 0 | S = 0 | Stoichiometry = C37H54F3NO2P2Ru | MND = 6
Ru       24.82223409449907    2.58656363698128   16.61372382312798
P        22.87066304025060    1.98903183363404   17.85684226072740
O        23.96175353051110    1.42226717925336   14.99927256114041
N        23.53478583990848    3.58603054175229   15.19475369611131
C        25.87602879521745    1.15960999715071   17.61882863601233
H        25.72406610685635    0.15915057028560   17.20553557261939
F        30.00934155504567   -2.78560908887569   22.43430628465342
P        26.69713670470031    2.78942959193269   15.14518300162389
O        25.75444656601451    4.77922610378834   18.39759773722766
F        30.61496613469540   -3.47697686724928   20.49067409092075
C        26.71164945959293    1.21807806240567   18.66503514857303
H        26.92484570864273    2.17684545250696   19.12976526293168
F        28.78909440780427   -4.19708870574376   21.36434703932074
C        27.40744741763091    0.10266014499512   19.28661053818287
C        28.22360978032777    0.35001317453971   20.39776236495674
H        28.31502005229230    1.36202714612835   20.76456188774155
C        28.90909534561687   -0.66330186217990   21.03181068035477
H        29.53186407934331   -0.45225857960103   21.88797076943548
C        28.79157246973235   -1.96722316796099   20.56553900876717
C        27.99179755051027   -2.23961644995064   19.46000464715809
H        27.90776336051616   -3.25485388727560   19.10107646598592
C        27.31112232766474   -1.21916477633360   18.83424457821090
H        26.69765241040039   -1.45224099152241   17.97787613263205
C        29.53957633365962   -3.08768255388673   21.21375166245846
C        25.39480953552985    3.89491687379267   17.73900573431255
C        23.38655254704477    2.44570868090329   14.50947532834637
C        22.61147366003219    2.41135634109138   13.30424064582926
H        22.52334321917791    1.47378504087099   12.77590557047763
C        22.01580026840548    3.54875914703037   12.86826618322149
H        21.43231744423830    3.55602614800009   11.95755885213948
C        22.13385151474618    4.74882413284064   13.61571158882747
C        21.50661660143572    5.94791712259034   13.24099256205689
H        20.92498010766375    5.96413440772147   12.32976045451724
C        21.62144544630198    7.07083599909609   14.01776216564906
H        21.13505169631561    7.98888632946862   13.72362324478277
C        22.36216086697952    7.02927754573271   15.20544209456665
H        22.43146851785437    7.91507659813516   15.81961501607871
C        22.99350632382107    5.87818653815356   15.59425125319615
H        23.55634284439509    5.83025728331318   16.51572836070086
C        22.90809954297195    4.71598806232633   14.80453137324596
C        22.60504761436114    2.92994784677713   19.44573179461454
H        21.66971723283274    2.57118309623830   19.88652607367906
C        22.47218536672144    4.42622100010610   19.16116380428555
H        22.05464295786507    4.93597857990616   20.02871426160375
H        21.83132789040893    4.62450359048525   18.30431157348517
H        23.44675648733196    4.85740052747757   18.95771358215736
C        23.74591485498742    2.68070053762449   20.42730643498095
H        23.68909390111447    3.39539056579281   21.24668958274648
H        24.70438343221700    2.80356584384180   19.92558068151538
H        23.70610010264356    1.67972853537075   20.84929253514599
C        21.19044785562363    2.21934396013498   17.01863423124762
H        21.32509448927511    3.14382080812519   16.43857971946826
C        19.98012508598541    2.42267556650066   17.93190964279142
H        19.08999907266430    2.49587089126778   17.30685400931649
H        20.04672888519042    3.33674421158752   18.51358260384866
H        19.84113694258263    1.58541393867399   18.60972151216993
C        20.87766427968174    1.08908388882292   16.03569049723119
H        20.12798447584422    1.42202451247485   15.31762121393959
H        20.47527842194862    0.22682317403397   16.56217750629914
H        21.75789949034688    0.77521436946429   15.48338751323762
C        22.95779674688407    0.22509455738993   18.48927962224808
H        23.89809971848499    0.26065484549854   19.05784166616806
C        23.14097217609802   -0.79530014064542   17.36131063908008
H        23.73540310873559   -1.63681373744238   17.71475620837446
H        23.64416908245855   -0.35087584046407   16.50504540696868
H        22.18394069049862   -1.18626576119584   17.02572193380955
C        21.84458929943371   -0.23550667543194   19.42686744094171
H        22.10338977172317   -1.21853614485254   19.81946254106911
H        20.89780135610444   -0.33094469965294   18.90097307823988
H        21.71148935236926    0.43388614232661   20.27216123841025
C        28.36445924288931    2.74864118937313   16.02062940991524
H        28.18705148795064    2.00120778256863   16.80601670208598
C        28.66021007007788    4.07418853261838   16.71918329763742
H        29.42830043780324    3.92430033029453   17.47651114967657
H        27.77490173836898    4.46410118635864   17.21043265179022
H        29.03006031896204    4.81383918412440   16.01344486438420
C        29.59618714192354    2.31097463210832   15.22741304753727
H        30.46721953159777    2.40789749332826   15.87487273590419
H        29.76567204355149    2.93261067697240   14.35252149419139
H        29.54007513767171    1.27109493667953   14.91848088231978
C        26.62520096838317    4.31096076353455   14.04881612768997
H        25.72285591857559    4.11776939835478   13.44861314375392
C        27.80155822534750    4.52500392080923   13.10043853519484
H        27.57074354372250    5.35104869005619   12.42792035572264
H        28.00809403630378    3.64740857151602   12.49346883981070
H        28.69940347666469    4.79016159196695   13.65239137530694
C        26.35743515541920    5.57960734470483   14.85624327996512
H        25.89684025259833    6.33680723652255   14.22283547284128
H        27.27534424230413    5.99313442448051   15.26284468947729
H        25.67892419928497    5.36593614412809   15.68033989922893
C        26.97514521777147    1.44102025444546   13.86966584340325
H        27.98376597990485    1.62115263405077   13.48181174690359
C        26.93598897515336    0.08163276393752   14.56290581790578
H        27.25707370019579   -0.70167323542191   13.87660043547146
H        25.91506962769206   -0.13306478054505   14.87197903339036
H        27.57950281650683    0.05981209579537   15.44059135230465
C        26.01797726477428    1.42753257053426   12.68028415302941
H        26.36077706845331    0.68222625778567   11.96201729011333
H        25.97079912313355    2.38582368525188   12.16823262257402
H        25.01892970625761    1.14736297760846   12.99664092256920

