66
CSD_code = JUQKIR | q = 1 | S = 0 | Stoichiometry = C22H36NNiO4P2(1+) | MND = 4
Ni        6.62273679990654    1.68056863693516    4.34354843553105
P         5.67587045608843    3.40237349124900    3.37603689782007
P         7.46707628140406    0.30449295441407    5.82461319274996
C         6.50336415454883    2.80779793577177    5.86304804059814
C         6.94474705863934    3.23130511935956    8.21781125034594
H         7.33391289075437    2.89181132391508    9.16317378854244
C         6.37552163279240    4.49392712391652    8.09317023136461
C         7.00399154146419    2.40869484020770    7.10646901954948
C         5.86798342205430    4.92296369257585    6.87111757310202
H         5.43144629241561    5.90561929140615    6.78783142074715
C         5.93237143588932    4.08144723953486    5.77591061778569
C         6.28705305360262    5.43476295468386    9.24805777285868
C         6.73721970716831    5.74839505976728   11.51995568527476
H         7.31842341445422    6.65629196397434   11.34951280596911
H         7.16208040707089    5.16831083935311   12.33450095608764
H         5.70628033174753    6.02868810096484   11.74278588949490
O         7.57109257134059    1.15479318966732    7.20464412660831
O         5.81971663967585    6.54143459131062    9.16852594510643
O         5.42396898762451    4.48424672784847    4.55943274070682
O         6.78288122426677    4.91095477236693   10.36954118174867
C         9.12556611197959   -0.50602876486009    5.78867927845165
H         9.11230299356026   -1.22778330096942    4.96510773523397
C         6.19234719960155   -0.97015497465243    6.25291904307019
H         6.39814783619536   -1.33343432890010    7.26529107037724
C         4.85293321344029   -0.23304711370248    6.22823350882212
H         4.73243027367881    0.28901580465668    5.26539526051003
H         4.79977342345795    0.50533659417360    7.02725478889238
H         4.02323060498474   -0.92641659030213    6.34772603696431
C         6.21000700246169   -2.12049525317441    5.25587527517150
H         5.41832494878013   -2.82890861943985    5.49071707022461
H         7.15756148734895   -2.65360063780726    5.27929825279999
H         6.04332141789185   -1.74627977625466    4.24633731026601
C         9.41766305646292   -1.21317738920436    7.10583431504091
H        10.43585430006410   -1.59669920967689    7.09702899120413
H         8.74243995224095   -2.04978971499750    7.26813523655711
H         9.32224103148458   -0.51891100693089    7.93719439157559
C        10.14876702530650    0.58561838267740    5.48477622164298
H        10.17549401171804    1.31261737730585    6.29444659884239
H         9.89170526881026    1.10683696513356    4.56086690028219
H        11.14337677530833    0.16002867481177    5.37461031371714
C         4.04612926837997    3.49410542979374    2.51963965683112
H         3.81375010315438    4.56086820321499    2.42498736844743
C         3.01307047100565    2.82682726712354    3.42354472927623
H         2.01914069199953    2.90541613855062    2.98934576188855
H         2.99610348575146    3.30053103802725    4.40363877358871
H         3.24803895386829    1.76978867494798    3.55246210800464
C         6.54914191863386    5.67954938216331    1.97980908949741
H         6.32391538777047    6.23307345214738    2.88898714231210
H         5.67977050977758    5.71228257842134    1.32748386568013
H         7.37195914505736    6.17857682873209    1.47196136014860
C         6.94130035001237    4.24701009953385    2.31314147265803
H         7.03908764380323    3.65651253734441    1.39604508659772
C         8.25336792769263    4.17540189607603    3.09566219186643
H         9.09539891216146    4.48080438533472    2.47848865709909
H         8.43484820164769    3.14659191686077    3.44644650762961
H         8.21156727382846    4.82961534282194    3.96563726400790
C         4.10383453453431    2.83161741377254    1.15051610566589
H         4.38831001049201    1.78464068926975    1.24916605804969
H         4.81651588408514    3.32846860810512    0.49598893748129
H         3.12501911389209    2.87260812311928    0.67754794180338
N         6.79497395449111    0.61652645365733    2.84234985657039
C         6.97192978803002    0.01067884943990    1.88128159785025
C         7.18219991721955   -0.74480738963172    0.69621918212395
H         6.95079939898108   -1.79449366369758    0.88006404859109
H         8.22471808847269   -0.65908267321302    0.38829681548523
H         6.54158282757605   -0.37111854902591   -0.10322675079741

