60
CSD_code = JUQKUD | q = 1 | S = 0 | Stoichiometry = C20H33BrNNiO2P2(1+) | MND = 4
Br        3.29244634176606    7.50050610380724    5.61682441695457
Ni        3.59905610840000   11.17272603913446   11.06380642855514
P         5.67018230481807   10.45290364048826   11.05498364808730
P         1.48055325828529   11.48197596631100   10.59946052339741
C         3.37917767156573    8.55070061504860    7.19076435165616
C         2.23305206028620    9.18381253991939    7.64612898384543
H         1.29551787434389    9.09232965932558    7.12228112871565
C         2.31054612698936    9.94605764369360    8.80013688953095
C         3.50688685780888   10.09820176402269    9.50729516611354
C         4.63590959968104    9.44100842908695    9.00916052639681
C         4.58682271941137    8.66726279607734    7.86128326587997
H         5.47494302977535    8.16890329847489    7.50833613636892
O         1.18508292322554   10.57377455800285    9.28265504557871
O         5.82273015084690    9.57912436625532    9.69093415337825
C         6.15095594906180    9.78086739310107   13.71846263936670
H         5.35342029846658   10.47008598652325   13.99320921562370
H         7.09412379804334   10.32163137797447   13.71473752078520
H         6.20874470531467    9.00721758515247   14.48089146952327
C         7.21274496782729   11.46548022978950   10.99053308233875
H         7.28340610124431   12.00175809940431   11.94288708584326
C         5.86220408065909    9.15409870585760   12.36140261990631
H         6.67794107102906    8.48729211105904   12.06278747725466
C         4.54049600357440    8.38486042629955   12.37286432694730
H         4.50802992538629    7.67715169060384   13.19864669881270
H         4.40255074159963    7.83294958081673   11.44401167039814
H         3.70042173307500    9.08868749564107   12.48615866573318
C         7.03764666143631   12.47306067286051    9.85634851424241
H         7.88126549192350   13.15828602968897    9.81785474854908
H         6.12523911703580   13.05581495656131    9.99652881207739
H         6.97321773160093   11.95664698852016    8.90022297404288
C         8.43931393371250   10.58459890677571   10.78810113683666
H         8.31964028860300    9.96616446952113    9.90178789420180
H         8.61450382134895    9.93938218255724   11.64589495020912
H         9.31900950996667   11.21037820228243   10.65039387976245
C         0.19606773608754    9.61487241700921   12.11347625871585
H         1.06064964501138    9.55728903480921   12.77564995916831
H         0.35190399779457    8.93218024564629   11.27958175653916
H        -0.68004542628992    9.28352717111656   12.66608691369127
C         0.00437938062788   11.04415155501325   11.61328762260634
H        -0.85258622307308   11.08053662447276   10.93106977005639
C         1.25747016032080   13.20787337471185    9.95699109869007
H         1.27274742927715   13.87740359864035   10.82341207012104
C         2.48442776155291   13.48804708995339    9.08806415103450
H         2.44326035971684   12.89885558693645    8.17274675409110
H         3.40613105377229   13.22024695213267    9.62921288137899
H         2.54029576137042   14.53933154140938    8.81504396204535
C        -0.18263717809409   12.02111187156722   12.76530671785176
H        -1.03724407642691   11.72265728955509   13.36861300495456
H        -0.35942209090886   13.03256557281796   12.40658227447546
H         0.69852016022244   12.02497505002229   13.40575028274948
C        -0.04414888531888   13.37336897439705    9.18514117281716
H        -0.07328192381489   14.35557876608014    8.71791808254156
H        -0.90848464310928   13.28437792839557    9.83897545624939
H        -0.12053460528760   12.62149460190850    8.40244101819647
N         3.69239917482578   12.27233913420749   12.54672305012578
C         3.75373746535964   13.01957412956572   13.41848076587274
C         3.82785573133638   13.93312511779273   14.50410690024301
H         3.08168711006329   14.71848308425943   14.38011496179347
H         4.81979493764892   14.38421858135278   14.54189997723970
H         3.63917422922078   13.40721419559726   15.44064708983720

