72
CSD_code = JUQLIS | q = 1 | S = 0 | Stoichiometry = C24H42NNiO2P2(1+) | MND = 4
Ni        1.71613897868839    9.89923517216279   11.74476011224358
P         2.57170630438186   11.88234732816726   11.31185631091988
P         1.18935438734794    7.76269203228340   11.64651503150925
O         3.42464585801548   11.69472770555481    9.94554188866051
O         2.09414732445874    7.14963695451074   10.44860735963862
C         2.74517039675729    9.42897918991070   10.22102532481068
C         2.80754208271950    8.11153911640447    9.76137602750148
C         3.47538729588580   10.38499208868642    9.51144474794452
C         4.23352835602152   10.05150767411253    8.40071112493446
H         4.78374826666881   10.82190949864889    7.88530103799663
C         3.55883114555090    7.75748045168370    8.65236329465376
H         3.57602438857557    6.72838426201430    8.33206490538583
C         4.27006576643949    8.73426536169311    7.97727729015251
H         4.85738557069079    8.46686111598039    7.11396612416316
C         3.90016834283851   12.52310394513348   12.47043185267781
C         1.29685834405352   13.13723244341153   10.73864237744256
C         1.87982481877280   14.18943722787812    9.80277258567627
H         1.06644446248408   14.73257879082126    9.32452829333416
H         2.48204841724091   13.72822394265683    9.02400003166865
H         2.49297948127398   14.90813372836712   10.33748956112071
C         1.82652387277087    6.74617486254865   13.09084302703582
C        -0.53786133313249    7.34636520704482   11.04365185998282
C         0.30487910995730   12.25372275783345    9.97156249831096
H        -0.05873397322994   11.43944063064308   10.61280480537483
H         0.78083523827619   11.81975485143354    9.09197511424819
H        -0.55442121182563   12.83359234911974    9.64057522239410
C         4.94831120340026   11.40589500249586   12.46265866616489
H         5.47386507352620   11.36971715821738   11.51083074814586
H         4.47216970554448   10.43390413304660   12.63069579293654
H         5.68076801216322   11.56811578662958   13.25044369960647
C         4.50648296558260   13.82860201777818   11.97455126753732
H         3.83026975014160   14.66461416787234   12.13529978208051
H         4.74706570465162   13.76220828783507   10.91551212728327
H         5.42629005799053   14.03384105377800   12.51969506130508
C         3.33335235420249   12.66681274705884   13.87927413828299
H         4.12651097537618   12.95973439604974   14.56463354703490
H         2.92265959499296   11.71713623025902   14.22091070799323
H         2.55334849278098   13.42179687676392   13.92537250667312
C         2.10017820289738    5.29376918020436   12.71762925417193
H         2.67453933930807    5.22904800480296   11.79693205164818
H         1.18092896402307    4.72961738011570   12.59506622978295
H         2.67876285383871    4.82371226966055   13.51107667911708
C         0.59920405234394   13.78895975392987   11.92675249821531
H        -0.26501017772265   14.35323401899263   11.58010556079126
H         1.26188690079403   14.48079764610395   12.44082463854720
H         0.25349207868193   13.03637944290977   12.63397492816060
C         0.87892561363532    6.83330805425752   14.28156860736259
H         1.35764350200756    6.40918234614971   15.16269746288297
H        -0.03429012628171    6.27238062328607   14.09875824833382
H         0.62065121557859    7.86866948452310   14.49830668967401
C         3.14756165484873    7.45368519200769   13.41892771624899
H         3.60596669386041    7.02485495548841   14.30783501708414
H         2.97703738640504    8.52251516992521   13.60363721935552
H         3.85028900776913    7.35156284374677   12.59185080158790
C        -0.75057690877042    5.84565916925595   10.90228267904166
H        -0.86351620626267    5.36825726197634   11.87250113953699
H         0.08333618775546    5.38856854930983   10.37354929463481
H        -1.65832512106287    5.65868661626192   10.33088170766002
C        -0.61649612107076    8.02921972296315    9.67479165123288
H         0.00570509608013    7.51510060141287    8.94536027649553
H        -0.27787808387554    9.06804441915895    9.74532407748486
H        -1.64121886418562    8.02801296241567    9.30964172392465
C        -1.56718818011395    7.97550716905923   11.97742076045181
H        -2.56854214972909    7.81160214436737   11.58380107689134
H        -1.40260139513584    9.05049006724838   12.05147347277513
H        -1.52240750595334    7.54580085146665   12.97452124841070
C         0.13296152884374   10.62938292403162   14.18876292721226
C        -0.60234689960245   10.97038107971786   15.35703421241682
H        -1.62527870703743   10.60295325404336   15.26928381261136
H        -0.61914302658903   12.05315012302424   15.48492933652108
H        -0.13393236919357   10.51592187850830   16.23062087654501
N         0.72586598187798   10.35338829319369   13.24271026841297

