109
CSD_code = JUQMEN | q = 0 | S = 0 | Stoichiometry = C39H64P4SiW | MND = 6
W        -8.49466989256061   25.26501498879586    2.62087174637262
P        -9.65268563278191   26.81614393550896    1.22003828030810
P        -7.61218464520041   24.56414186930459    0.52386834019097
P        -7.12836931647451   23.90496669328652    4.02075659964970
P        -9.12257416877957   26.19904466849787    4.72932098969221
Si      -16.05658848821044   17.87362548641440    2.16838440167450
C        -9.84178332969564   23.90572404341506    2.54533026526267
C       -10.79992445897696   22.90938107464273    2.47852187204685
C       -11.20160016525425   22.19027755581519    3.63081196119715
H       -10.72500865278258   22.42472298530103    4.57453116081409
C       -12.16738825665103   21.22157358881149    3.56589062979417
H       -12.46713939030805   20.68634698005349    4.45686240796558
C       -12.78584718924131   20.91058571630294    2.34623621934566
C       -12.38731797794353   21.59699945143305    1.18997234632400
H       -12.85589359148789   21.35049137280564    0.24664572879141
C       -11.42284072861985   22.56697975507513    1.25320519790756
H       -11.11760109168419   23.09357318443226    0.35740058779963
C       -13.79775321118000   19.93669095433964    2.28448146675542
C       -14.68158385012444   19.10798520648909    2.22777379147077
C       -15.34680645384658   16.30531060098199    1.30781886917462
H       -14.55465238681350   15.93021284118361    1.96523283797072
C       -14.69027886347164   16.62462384179644   -0.03171946056007
H       -13.96884014598996   17.43031148403976    0.07890145953600
H       -15.43242837688158   16.93011317557954   -0.76444011883497
H       -14.17302229340237   15.74872257545718   -0.42334697751901
C       -16.37076383361295   15.18588823517984    1.13937536998092
H       -16.84079271095672   14.93792494977730    2.08871655693080
H       -15.89268044813050   14.28564524814684    0.75212730393781
H       -17.14771818579284   15.47739957585976    0.43588474759424
C       -17.53355750391670   18.77372261632722    1.32306473613378
H       -17.68887798799097   19.69474801614095    1.89625127309957
C       -17.21646695446293   19.19380680809570   -0.10851636295694
H       -16.26989219890639   19.72700899598120   -0.14982154439747
H       -17.99719299869508   19.84620795495825   -0.49982673623679
H       -17.15129668614857   18.32540494158145   -0.75969169855703
C       -18.83975735042563   17.98418414722909    1.36247990818817
H       -19.09951329400038   17.70661686264081    2.38159174735353
H       -18.76293670586390   17.07562740268357    0.76953740252267
H       -19.65701285978646   18.58029746784866    0.95513649670396
C       -16.52533217455159   17.45889686147620    3.98486348640159
H       -17.34669407633368   16.73473315161295    4.00366137742432
C       -15.34613204256459   16.83973977618723    4.72861674176775
H       -15.04839059895613   15.89754964544688    4.27552933153669
H       -15.60467941908018   16.64792746380242    5.77004219831104
H       -14.49272340764794   17.51381580319591    4.70713503260308
C       -16.99269452312031   18.71094898177486    4.72096703687365
H       -17.88027553300730   19.13136273329670    4.25516182216349
H       -16.21109431824760   19.46731295477599    4.70771219463517
H       -17.23062766374385   18.48245554907081    5.75990625004974
C        -7.00107291375974   26.77675732668159    2.70973487633275
C        -6.19894850993733   27.69005482173455    2.79460475543326
C        -5.27383060253990   28.75532115782852    2.89980587917122
C        -4.52739078972205   28.94169560884494    4.06580897496806
H        -4.65551978569287   28.25410233534891    4.89248663515616
C        -3.63574200874126   29.99009877088944    4.17011901113966
H        -3.06686354483225   30.11675859740717    5.08210869114383
C        -3.45855788562433   30.88521484526136    3.12302766790229
C        -4.20207290413278   30.70117562747025    1.96120705225148
H        -4.07513726146535   31.39102715993071    1.13699526138755
C        -5.09464090803139   29.65713722403516    1.84614860618988
H        -5.66645794978917   29.52799715493274    0.93562508329685
C        -2.49468536864717   32.02916849401107    3.22943250936073
H        -1.97890924180625   32.01572533966185    4.18695628703996
H        -3.01917237082923   32.98014735587915    3.13224834085390
H        -1.75109524418331   31.97789058755084    2.43397241248472
C        -9.59513932886668   28.63530513500840    1.44706786705583
H        -8.57015658548661   28.91913811509995    1.68222602155149
H       -10.23711297305459   28.91058529062109    2.28304103002724
H        -9.92987609431817   29.15053042334787    0.54594550022538
C       -11.44559970322434   26.58268964401568    0.91725648490626
H       -11.62071191213948   25.55144222414110    0.61750244695907
H       -11.81646264368790   27.26725705118550    0.15359858807517
H       -11.97240711740830   26.75577115634382    1.85549206040691
C        -8.97014150728218   26.72306196751570   -0.50419342505331
H        -9.67355665607000   27.16029689017531   -1.22158210528377
H        -8.05320212993047   27.32244117431511   -0.50271921673922
C        -8.64020576195251   25.28004743101816   -0.84378297215216
H        -8.12177412772371   25.19737405183753   -1.80545961474705
H        -9.55902916785256   24.68669391226511   -0.88892691257058
C        -7.56549941489040   22.80915098862603   -0.00293644352785
H        -6.79257929213719   22.29092272592217    0.56377626684389
H        -7.35410409897066   22.72492702401375   -1.06963406746695
H        -8.52790113604135   22.35482733711882    0.22562516174631
C        -5.93540484044789   25.10707541645051    0.01375517489839
H        -5.84018152797929   26.17443217307876    0.20887075657711
H        -5.74440184494876   24.89372995035538   -1.03852357845649
H        -5.20480326498894   24.58613117212679    0.63256922100304
C        -7.11235787690657   22.07592551655307    3.90979660031154
H        -8.14128133174878   21.72634661152291    3.84588020674985
H        -6.61908271382878   21.63508537669673    4.77697881306166
H        -6.58818590793418   21.78010497468744    3.00187687912987
C        -5.33073249640774   24.24600857181472    4.15568108414745
H        -5.18974562062986   25.31608979900251    4.30151572237457
H        -4.86100036867933   23.96987296166859    3.21153395287242
H        -4.87225590326790   23.68626007822429    4.97149628251174
C        -7.65912785658217   24.10818370545587    5.78632908114497
H        -8.56694161629183   23.50864101188498    5.91076410192237
H        -6.89222322480550   23.72903974081088    6.47075501327298
C        -7.96631749071667   25.57391491840059    6.03942020933799
H        -7.05075714843599   26.16801557544132    5.94512839301047
H        -8.38905963420507   25.73596557249965    7.03727209195509
C        -9.03622989809690   27.99100536224265    5.10934738372283
H        -8.10655484646801   28.38363768591938    4.69946080140422
H        -9.07154131235895   28.16057496696909    6.18615767278050
H        -9.87476482865713   28.49830651086119    4.63357913865241
C       -10.75569189792091   25.79344651242793    5.45847141382030
H       -10.88653035223985   24.71337402082881    5.45304890781347
H       -11.52691490508795   26.23002277197580    4.82413595816784
H       -10.84946831525419   26.18038391927524    6.47376472821840

