41
CSD_code = JUQVEW | q = 1 | S = 0 | Stoichiometry = C21H15ClN3Pt(1+) | MND = 4
Pt        7.11073079157597    6.74617675562826   13.56336196533855
Cl        5.24762838533698    7.78796546348322   12.94756890710894
N         6.83176966126169    6.81657532564216   15.54437918468613
N         8.70216857853462    5.85602665898192   14.08815521323696
N         7.86103851250230    6.41165448419834   11.73773916650425
C         5.81370302843570    7.34866403272800   16.21412030960906
H         5.03319700288889    7.80276884877778   15.61615711980071
C         5.74427168466267    7.32997526913106   17.59775496843850
H         4.90001691001349    7.77448915056797   18.09840622937070
C         6.77227241350382    6.73413259878342   18.31249104545602
H         6.74924555448164    6.70192222461477   19.39031585185352
C         7.83553707238547    6.17785270223002   17.61895190524555
H         8.64704788933584    5.70813644283494   18.15012550731626
C         7.85126851773813    6.22773236816093   16.23009221995940
C         8.92982061768897    5.67561058325905   15.39814528301276
C        10.08495553459588    5.02730163277301   15.80701373079130
H        10.28006056513847    4.85118261247874   16.85160851727324
C        10.99846868219722    4.57299695199247   14.84554169655216
C        10.71505031093092    4.78682690093511   13.48937031896065
H        11.41799201988201    4.46118591570966   12.74099734882991
C         9.54473966523440    5.43799519045349   13.13126202330560
C         9.05732277369045    5.76112040505398   11.78283508285326
C         9.73440217575297    5.44049975549665   10.61216216694820
H        10.68067322061899    4.92721499774939   10.66098068462640
C         9.18561485971374    5.78514325986851    9.38704864418210
H         9.70137203824081    5.54112851263041    8.47176226154516
C         7.96685645769792    6.44590084745678    9.36071614794923
H         7.50587139128015    6.73108452867371    8.42950150740387
C         7.33868418412579    6.74056846065905   10.55998493306583
H         6.38639931950755    7.25579799513842   10.58634330065940
C        12.22662972456490    3.88845123160327   15.25048136552001
C        12.92213075653624    4.29539706673513   16.39040774218086
H        12.57106093934510    5.14233903347658   16.96114412293706
C        14.08571183416097    3.65223258110635   16.76615708120224
H        14.62073079038026    3.98314529745802   17.64285212364173
C        14.56544353248695    2.58700194020171   16.02063347835900
H        15.47128151342286    2.08296341837608   16.31892471957174
C        13.87873879392939    2.17067454500168   14.89116253064683
H        14.24550963771819    1.33767482969834   14.31161172461996
C        12.72197409319951    2.81866255683243   14.50290031070031
H        12.17810856530262    2.46962662341947   13.63763155873646

