75
CSD_code = JUQXOI | q = 0 | S = 0 | Stoichiometry = C34H33Br2MoO2P3 | MND = 6
Mo        9.75827747047929   12.70506743744958    4.35071080667846
O         8.67353242501068   13.75323061058205    4.96201586635239
O        11.02182875259605   11.04227500272770    3.71789148887023
Br        9.71986260094670   13.32039178057050    1.81898408428587
Br       11.95891878332478   14.00511127147561    4.48757376947317
P         8.17865650928214   10.96981849320995    4.05375034807216
C         8.60849548588809    9.49118153774002    3.01686339865730
H         9.22132319458298    8.80443314473097    3.61702134578745
H         7.68333186987854    8.97752542048152    2.73745146683379
C         9.38288648422727    9.91986485279430    1.77445057625756
H         8.88808793114481   10.75034664709397    1.26351540075743
H         9.48837967154595    9.08849447290744    1.07303656571750
P        11.06371828818986   10.39862136817976    2.36742872938854
C         7.85014848543976   10.14269447501309    5.69248958256473
H         7.17376539683825   10.82393549602332    6.22336844597913
H         7.34607528748256    9.17964257261853    5.55889687133902
C         9.15781465429218    9.99151976186068    6.45800814191685
H         9.79951438513933    9.24239976854370    5.97439691116688
H         8.99605725542188    9.66817769848273    7.49094818170943
P        10.11475337132379   11.59756023985779    6.41921518398714
C         6.50239542537686   11.39637964504061    3.52388101518685
C         5.48875892133217   10.44699434006856    3.40975192739181
H         5.68053424919785    9.40864079507206    3.64690171731941
C         4.22639557751791   10.83296742361265    3.00222196498378
H         3.44207800585538   10.09515215953925    2.91305906348261
C         3.96588422057581   12.16310937431793    2.70953420419400
H         2.97825408105026   12.45759768629518    2.38701318118439
C         4.96666735057152   13.11155920389507    2.83613617462873
H         4.76325315354593   14.14825419655056    2.61571897155182
C         6.23376940739171   12.73138710618191    3.24286489715179
H         7.01869656293851   13.46962480837489    3.35771955450086
C         9.37669647138551   12.63751608976736    7.69937144248852
C         8.28054163233799   12.30755131400918    8.48598651264317
H         7.79725988934995   11.34482755008470    8.39452420191746
C         7.78894409452183   13.22414816731842    9.40061112068906
H         6.93094156722797   12.96634221502336   10.00513462775371
C         8.38570488492536   14.46524650151828    9.53709614473456
H         7.99161677771319   15.17722606610796   10.24717656538983
C         9.48512363073872   14.79497306990855    8.75949527123440
H         9.95211600153733   15.76298630945418    8.86170619389851
C         9.97839028848957   13.88716794743057    7.84310732659797
H        10.83473032875170   14.14250901658143    7.23063890834840
C        11.65823874370152   11.05066528310069    7.21696859821366
C        12.84096838572092   11.01617047166463    6.48792874079392
H        12.85121924913349   11.35213129327636    5.45952808193953
C        14.00920416950237   10.57511241547020    7.08525045259520
H        14.92666334487702   10.55194799044965    6.51634889888670
C        14.00093472913709   10.17575708167781    8.41080783935731
H        14.91330320059712    9.83587223369017    8.87832193121723
C        12.82555495244821   10.22355551136581    9.14548933906813
H        12.82396598733451    9.92446091120262   10.18368394762938
C        11.65599524480008   10.65997382623325    8.55381877695276
H        10.73977658815309   10.71367731723728    9.12682036420181
C        11.89672288400176    8.79654099547273    2.59296121933304
C        12.18152829089741    7.98887052209623    1.49895624379616
H        11.90238968971826    8.31450391203483    0.50653185741449
C        12.83255797903849    6.78395705867475    1.68496497675516
H        13.05567930376817    6.15498436201502    0.83609496509523
C        13.20790983420973    6.38644197429869    2.95977637241565
H        13.71983538733935    5.44623868858317    3.10027008701004
C        12.93521185947486    7.19530039222362    4.05014917616483
H        13.23392631135196    6.89136775752625    5.04250627849972
C        12.28019542413808    8.40031264402456    3.86659033612520
H        12.07168158173105    9.04629993825909    4.70954956229060
C        12.06695272262830   11.25495393241575    1.13462258318243
C        13.14817357880572   11.98584337578924    1.61161418064123
H        13.32132601656971   12.06545595949068    2.67714287527134
C        13.96955615046034   12.64690278721168    0.71760506574912
H        14.79228880275762   13.23925207427007    1.08686807205489
C        13.72131168461733   12.55890294158389   -0.64225572020914
H        14.35738594971481   13.08261824262137   -1.33994589168441
C        12.65134610025603   11.81354994438303   -1.11317999539364
H        12.45684967256523   11.75607673390215   -2.17362813186668
C        11.81824809216113   11.15686836840613   -0.22768514016281
H        10.96251726298890   10.60388002083539   -0.58614409641933

