30
CSD_code = JUQZOM | q = 0 | S = 0 | Stoichiometry = C9H13Cl2N5Zn | MND = 5
C         1.19772250082948    0.83609867157516    5.46688507829159
H         2.03929874960203    0.32378392306724    5.93649817030866
H         1.56391157233473    1.36609528648093    4.59600697530383
H         0.47794114677874    0.08804910873220    5.13349605718403
C         0.54678790762948    1.76198563560504    6.45385729085117
C         0.70949026327414    3.21225104592192    6.38669790879985
C         1.47952597617527    3.89044025351758    5.43811317001504
H         2.00101866492199    3.36641068173917    4.65518328858032
C         1.58701345819699    5.26783629559363    5.53227896633261
H         2.19277180291230    5.80876358678249    4.82022203368438
C         0.93529422331977    5.95161289355983    6.54422931769895
H         1.04420032586924    7.01899234038814    6.64145484839960
C         0.17484322075683    5.21530802661584    7.45485386188835
C        -0.54917254663973    5.78923640032274    8.58764809904083
C        -0.83305145196147    7.26157174817387    8.66977295918158
H        -1.83395635358509    7.43049459992378    9.06850485820789
H        -0.77853916710231    7.72487838580985    7.69054297295541
H        -0.12008572684876    7.75126041699742    9.33278582816610
Cl        1.69782457041845    2.43877713434947    9.76625246454682
Cl       -2.13416885173758    2.11567837602490   10.24741117980692
N        -0.41467186873348    0.03935258210695    7.63775158155519
H         0.23190054912747   -0.65265801677509    7.27404871748731
H        -0.80532115815188   -0.14451680788903    8.55133117912589
N        -0.16330219345043    1.32960025725080    7.43672657405149
N         0.08190028455670    3.89413492846844    7.34136756242182
N        -0.90949843315940    4.93524412768834    9.47738329544463
N        -1.54398014298161    5.20804503526678   10.60102916900708
H        -2.03429458430458    6.08999947442989   10.70836263217416
H        -1.95573361303785    4.37221717946139   11.00992207871064
Zn       -0.37256912501737    2.82985642880350    9.05788188075837

