33
CSD_code = JUQZUQ | q = 0 | S = 0 | Stoichiometry = C7H19Cl4Si2Ta | MND = 5
Ta        5.02971926821477    7.56027026225408    4.56017139230055
Cl        4.59070979832632    6.45061010691301    6.48829307208486
Cl        5.92896608578302    5.64894655133911    3.65673696201936
Cl        7.08902383234763    8.51538020133668    4.65639554584097
Cl        4.07232143931976    9.46208323647361    5.37757547038884
Si        4.60423691248451    8.95151384014014    1.58314789562032
Si        1.89888819493584    7.93114479910787    3.15709457337703
C         3.75320106044433    7.69805626723816    2.75583904000250
H         3.79941546412984    6.75195220781671    2.21330821874279
C         6.27549117406186    8.19219122104556    1.04859627769262
H         6.97003893399799    8.13795894182993    1.88257316246563
H         6.74538759983483    8.77694305480745    0.26454917058439
H         6.14596762794984    7.18357964881816    0.66851280382638
C         3.53857937933128    9.19075100522894    0.01677329679212
H         2.58074456063728    9.64304493219438    0.24492938194093
H         3.34827950940718    8.24689894978096   -0.48149288244270
H         4.04605050912018    9.83627916792382   -0.69150982886198
C         4.92000639504718   10.65370092565645    2.38423440523258
H         4.02390046479093   11.05514612107980    2.84407388222480
H         5.25719729968497   11.37128556017766    1.64203515621862
H         5.68479411217923   10.59073660435672    3.15351380377399
C         1.31990829243905    9.74127792121415    3.30460103670587
H         1.84509835784118   10.26624264182896    4.09385514172041
H         0.25971277193901    9.77900746213017    3.53441392292412
H         1.47380070364757   10.28552982094623    2.37938549871556
C         0.89016076609795    7.08716236918433    1.77014297836949
H         1.12023434704738    6.02937710702511    1.69670865648956
H         1.08905423440530    7.53404399371174    0.80345605061540
H        -0.17397021591278    7.17698584599475    1.95948520328496
C         1.54914966068160    6.98578593851357    4.78334558758553
H         1.87808810765516    7.55724155912049    5.64670453813286
H         2.06829310128781    6.02889631821862    4.79689598603135
H         0.49005025084159    6.78517541665708    4.90985459957156

