54
CSD_code = JUQZIE | q = 0 | S = 0 | Stoichiometry = C24H27F2Ta | MND = 5
Ta        5.01891901403000   10.67688215258696    2.01466494429548
F         6.70732485503914   10.30987431930588    1.50120819119466
F         3.32936480800494   11.04228636463679    2.52801985205181
C         4.90796533601633   12.36792763361358    0.44755959993381
H         5.61141384758305   12.15613750571230   -0.35913294209640
H         3.89642317147998   12.44164678188014    0.04572611727096
C         5.28708954772843   13.56754375477794    1.20931633285985
C         4.32382089211353   14.36907514916366    1.82801842700102
H         3.27699369079048   14.12931926892045    1.69998306165302
C         4.69182874430490   15.45954027537042    2.59271108412970
H         3.92729391497807   16.06594857597350    3.05798604772513
C         6.02905542655722   15.79058437621536    2.77053873589770
C         6.99291645681901   14.99523727852362    2.15721193317450
H         8.03816692545400   15.24044545005894    2.28435878518919
C         6.63368240510032   13.90472988082245    1.39241902818248
H         7.39668426672584   13.29922925519302    0.92054610594381
C         6.43694492317939   16.97736800159523    3.58966082732821
H         7.17295304088553   16.68992430465400    4.33912202264962
H         5.57942692004997   17.41705511836234    4.09267884446819
H         6.89074277821040   17.73767323768589    2.95385586856524
C         4.38065515232228    8.53646115370332    1.43278234747334
H         5.19943841089293    7.83968538895849    1.61819051648015
H         3.50635979939320    8.24433455620441    2.01629866569040
C         4.07092208675751    8.65763787916837    0.00014244566768
C         5.04804190965266    8.43191667853183   -0.97461826042535
H         6.03441574306755    8.11125696232269   -0.66764849220475
C         4.76746395480634    8.61111984090755   -2.31453566809692
H         5.53776417452787    8.42874094083347   -3.05071079110036
C         3.50743512300297    9.02284654462578   -2.73473484258456
C         2.53225448197228    9.24911498409535   -1.76970308500523
H         1.54599568753237    9.56775544325132   -2.07717916563500
C         2.80484199917158    9.07221168737022   -0.42783245649481
H         2.03251885664135    9.25162578323840    0.30871783408111
C         3.20230935543593    9.19267728229043   -4.19201550264058
H         4.08660177191900    9.51290365156838   -4.73854943608241
H         2.41079377785682    9.92358816246096   -4.34060778760429
H         2.86986114957965    8.24479382114489   -4.61747237185262
C         5.76984834729871   11.12037393235991    4.15142037379534
H         6.74421955222267   11.61003395421533    4.11893829557101
H         5.04931916239430   11.76505784865968    4.65717328117577
C         5.84386171251620    9.78713252287588    4.76868213148484
C         7.03215522554734    9.05232442872828    4.77542773752601
H         7.92835085055852    9.49449816103626    4.36225588390979
C         7.07511854740272    7.77612021924979    5.30373380158989
H         8.00761734817017    7.22929561391775    5.29965988102360
C         5.93921411088351    7.18539955436284    5.84214915546210
C         4.75195732139853    7.91221845417039    5.83673692810517
H         3.85913062528657    7.46757468644655    6.25377936244071
C         4.70074953313076    9.18646554609084    5.31079661080136
H         3.76978541017242    9.73886984325156    5.31891755693838
C         5.97879807622422    5.80586462696406    6.42623466701686
H         5.79172423080422    5.84388818980146    7.49936276864703
H         6.94749385036828    5.34067493802363    6.26209708357123
H         5.20927169603934    5.17890803411843    5.97795766385374

