44
CSD_code = JURBUV | q = 0 | S = 0 | Stoichiometry = C15H22MoN2O4 | MND = 6
Mo        1.79306040871703    4.05933880721855    3.63572870990957
O         4.88335297638179    4.05928524178781    3.79219159057438
O         1.80807905091467    6.09766465804727    5.93997423269179
O        -1.28234860673994    4.05913952475627    3.97217029893297
N         1.76949123184043    2.86334873397750    1.68676479917411
C         3.74671972618342    4.05930931787629    3.65490322879026
C         1.81006163287735    5.34519444806912    5.07382778225458
C        -0.15660093098418    4.05942261469082    3.76486889841088
C         1.95710333760286    4.05925054596782    0.86546151393030
H         2.98026919247216    4.05925462379210    0.46413837034671
H         1.26663060103848    4.05924223741356    0.00117194547424
C         2.85743332410243    1.90215809930943    1.48918813048822
H         3.81435617956154    2.40367176090803    1.65903076721425
H         2.83886184253311    1.52672146997438    0.45089731665462
C         2.72979391372845    0.72931438861673    2.45230973892645
H         2.77608201925726    1.11101459021435    3.47505100332170
H         3.56814507123280    0.04784079539255    2.30047130279382
C         1.40464576814690    0.00981340554892    2.23321808676876
H         1.39444153210197   -0.45588301887458    1.24365976214654
H         1.27598766002937   -0.77635926625954    2.97685569711520
C         0.27274635999869    1.02426792374931    2.33860591167772
H        -0.68670587821150    0.55783478136779    2.10974403681659
H         0.23165927511924    1.41870237362478    3.35740123812235
C         0.51327587950490    2.17899925518020    1.37410877763261
H         0.54881868764901    1.78995489205990    0.34082994620750
H        -0.31431606740326    2.89013443974213    1.44360641083117
N         1.76946758754801    5.25515698319333    1.68675366698838
C         2.85740722999956    6.21634726358888    1.48915540805901
H         3.81433666116677    5.71483673659938    1.65897824732658
H         2.83880837771321    6.59176545781156    0.45085784464302
C         2.72981023183266    7.38921315599422    2.45225705180161
H         2.77617310897982    7.00753725424849    3.47500292595180
H         3.56814341300160    8.07069554113351    2.30035245552505
C         1.40464051398544    8.10869730457045    2.23323659905183
H         1.39439415362050    8.57440987073067    1.24368693369447
H         1.27600952371113    8.89485754887959    2.97689324077007
C         0.27274564473325    7.09423659095357    2.33864055227133
H        -0.68671066756241    7.56067666064488    2.10980691816073
H         0.23168135229248    6.69979156518261    3.35743429769818
C         0.51324901575061    5.93951169890373    1.37412446621190
H         0.54878375511563    6.32857263536137    0.34085052712651
H        -0.31434588317420    5.22837935710863    1.44362468963167
O         1.80852256292132    2.02120410960148    5.94015269151954
C         1.80913923070990    2.77287362134198    5.07331198636069

