32
CSD_code = JURFIN | q = 0 | S = 0 | Stoichiometry = C12H13Br2N3OPd | MND = 4
Pd       -1.03132281943965    0.45786654067664    4.38780622375975
Br       -0.03004477856268    0.12707201402104    2.27091085951052
Br       -2.91791555396024   -0.82936897473802    3.73982925772155
C         0.50477272597493    1.36617002641135    5.27671309676516
N         1.84719299207874    1.38370606802009    5.25077764046268
C         2.33186269382030    2.03344653199878    6.35776883297595
H         3.38113420390666    2.16235741855051    6.52788959892094
C         1.27821922537088    2.43510370839470    7.10089824511842
H         1.24886462528446    2.96056967888820    8.03171436706981
N         0.15047520361854    2.00719618342727    6.43505402795210
C         2.68794077616759    0.71970487409019    4.28381152661738
H         3.69593498808667    1.13074770890560    4.37404224475315
H         2.30908329068672    0.93043802041785    3.27573809102142
C         2.72807702981026   -0.77821955132869    4.45635738147717
H         3.63968720703467   -1.22893290171835    4.09071423853626
C         1.76228853334536   -1.53703508484758    4.93764101294242
H         0.80559329242556   -1.14286230298523    5.29201385271709
H         1.86538177307788   -2.60679410568143    4.98444977490876
C        -1.17952905669995    2.04709173118443    6.83067784179186
N        -1.98654577721099    1.25111509648079    6.11733531053632
C        -3.28381665742887    1.21943894101672    6.43201629124155
H        -3.90450038208979    0.55909627745855    5.83842801854455
C        -3.81615119076919    1.96609148558602    7.45405348340664
H        -4.86564126959151    1.92108118952034    7.68806587552651
C        -2.98002702052787    2.80773343405574    8.20487888256458
C        -1.62635650647888    2.84134385404959    7.87915845544773
H        -0.93145372620659    3.47235425404589    8.40638921732854
O        -3.55825896799084    3.51909804255133    9.18273518271813
C        -2.76755012229207    4.38736965066624    9.96516794987665
H        -2.30453202978741    5.16659530067950    9.35251783610564
H        -1.99478241182092    3.83879705649948   10.51199566844354
H        -3.45248028983327    4.84722783370433   10.67454971323694

