77
CSD_code = JURJAH | q = 0 | S = 0 | Stoichiometry = C38H32O2P2RuS2 | MND = 6
Ru       -2.51043850432722    1.34545031109838    2.78069118360679
P        -3.61734477212973   -0.18062043946910    4.15210933708209
P        -1.94589010928867    3.21055194955700    1.50292008168023
S        -2.98895721899912    3.23602153456971    4.35573328238086
S        -4.77062039533527    1.20323270669512    1.70679585846560
C        -2.04512396716723    0.12722657696383    1.46279823274363
O        -1.75525780130038   -0.57816775644548    0.60690941149225
C        -0.91868013753666    1.25189708559617    3.72666964569254
O         0.03109599261492    1.16220541703598    4.36248337780341
C        -2.71947638883641   -0.68598166636440    5.65904395578244
C        -2.45502095372187   -1.99729611932065    6.03401136883388
C        -1.79626489532461   -2.25153344403591    7.22478734857126
C        -1.40654507276001   -1.20806773871566    8.04681855550465
C        -1.68242110280096    0.10076023215477    7.68338306754443
C        -2.33811825203793    0.36075091093643    6.49624836327901
C        -5.21799640610768    0.19659860711680    4.92873042102207
C        -5.83766021854682    1.43214605014216    4.81273960887447
C        -7.04110019805734    1.66231209217950    5.45611519430039
C        -7.62700067268240    0.66375665101281    6.21406959947123
C        -7.00461888918730   -0.56941207728690    6.33941546056394
C        -5.80059770743082   -0.80441212235249    5.70598236865368
C        -3.89557657090756   -1.73700445048318    3.26410448400710
C        -2.76534533117896   -2.46471263227152    2.89299552239488
C        -2.89899404620857   -3.62133360421598    2.15005382584488
C        -4.15905714736129   -4.04821581605696    1.75778010225410
C        -5.28101020144743   -3.31432466840534    2.10425341883129
C        -5.15513103757496   -2.15782797584621    2.85517722931909
C        -0.45062950701789    3.99893210968526    2.16029702475840
C         0.72497504439414    3.24965938012276    2.12397331069538
C         1.88753667933598    3.75631063516262    2.67089405411383
C         1.87952673016443    5.00575793423144    3.27314976798197
C         0.70820553228664    5.74176876886466    3.33166980966149
C        -0.45943339419904    5.24297271680450    2.77916306345148
C        -3.10546099500175    4.58394012722625    1.22665257912780
C        -2.65058536601558    5.65415122450216    0.45643929753820
C        -3.49000307157677    6.71854635294278    0.19448812908307
C        -4.78749467141271    6.71713395974628    0.68469560487841
C        -5.24420613670626    5.64793196635724    1.43489645343042
C        -4.40652647362706    4.58060314604622    1.70784324235074
C        -1.53192031341132    2.86979071294437   -0.24227729299456
C        -0.35494305972350    3.24684434172031   -0.87675022500129
C        -0.17142206401778    2.95109960849815   -2.21671089353555
C        -1.15625865240698    2.28888797696816   -2.92947887947562
C        -2.33917944663594    1.92679670410735   -2.30426272202044
C        -2.52748423360065    2.21781781722735   -0.96763492246166
H        -4.59927778791972    0.08095180322816    1.02043812882535
H        -1.74995745954422    3.47978619382970    4.76410525174057
H        -2.75961859875080   -2.82017810496245    5.40223268589022
H        -1.58913239164846   -3.27255646713397    7.51153488374857
H        -0.89162597551933   -1.41496690907820    8.97340935723939
H        -1.38703644273668    0.91683284048873    8.32622970594295
H        -2.57001585238332    1.38011687045638    6.20624195006525
H        -5.38430956403049    2.21453081096709    4.22201441098331
H        -7.51982862419963    2.62562067598067    5.36300918113130
H        -8.56835080707927    0.84406944998004    6.71233602858225
H        -7.45897844950737   -1.34799496108540    6.93507322789205
H        -5.30702319357418   -1.76248149133354    5.80683960826282
H        -1.78438805557961   -2.10738400634606    3.19093293655893
H        -2.02240194892952   -4.18605888619036    1.86833610957113
H        -4.26315260876556   -4.94953577159657    1.17206807323549
H        -6.25994414298309   -3.63926941514681    1.78370319673134
H        -6.02757251246698   -1.57308749088251    3.11169234077559
H         0.71130294854096    2.26563800729453    1.66538935124218
H         2.79781264594107    3.17596242193610    2.63660949394672
H         2.78723035223224    5.39965734922956    3.70568876253153
H         0.69982397797994    6.70735105238196    3.81561929344694
H        -1.37894155618577    5.80828161964668    2.83956018192461
H        -1.63941712114129    5.64650853255645    0.06991481720076
H        -3.13359151439045    7.55105758714794   -0.39497074511036
H        -5.44159487579614    7.55148734766161    0.47688485268588
H        -6.25648878327099    5.64065122938443    1.81081117093144
H        -4.76818720208790    3.74860378655976    2.29406080102943
H         0.41873445006767    3.76923885578895   -0.33123493960492
H         0.74713794247251    3.24231676875536   -2.70571166891059
H        -1.00393018689840    2.05892921024426   -3.97374561573111
H        -3.11346697191215    1.41827615416815   -2.85967969846584
H        -3.45305428500859    1.94889983912385   -0.46966084202773

