69
CSD_code = JURMAM | q = 0 | S = 0 | Stoichiometry = C27H34Cl2NO2PRuS | MND = 6
Ru       -0.08768128202991    2.57413116545676    5.07668897893076
Cl       -2.42284642010948    2.25934231087701    5.51075173224500
Cl        2.15932684176959    3.28307017777819    4.97360823009273
S         0.40948907619438    0.74344106834695    6.23884052092852
P        -0.13154457088567    1.44685168870050    3.11696992571558
O         0.13292603543464   -0.53837809147745    5.60947594372800
O        -0.40356877062016    3.83665131963889    6.91337290941640
N        -0.48442025088366    4.45046117093591    4.13202762235605
C         0.23795212480802    2.59364446640939    1.74477051752062
C        -0.31874662756647    3.87878598119318    1.76328692015217
C         0.00266635295287    4.77006295350519    0.74984001415537
C         0.85529650032327    4.40314926191843   -0.27783440038128
C         1.39849106598416    3.13125091090892   -0.29826144177405
C         1.09237294291716    2.23338929168337    0.70927319107916
C         1.03864235876451    0.08400233671903    2.85270186291627
C         2.37130500890410    0.32637722301717    3.18054560632147
C         3.31450958613097   -0.67249627175125    3.03318912385289
C         2.93547262013971   -1.91980941452869    2.56195729221553
C         1.61335293314421   -2.16065535730555    2.22955094328554
C         0.66326270979485   -1.16419067362749    2.37091220954322
C        -1.73734789874761    0.74128664938781    2.64011173655744
C        -2.27407350004455   -0.22783575202460    3.48655632892233
C        -3.51753153910823   -0.76685386731090    3.21876323343390
C        -4.23453436098013   -0.34246240781194    2.11042433525131
C        -3.70219087209103    0.61725894143556    1.26670891017031
C        -2.45709738922843    1.16350273592412    1.52842344549757
C        -1.23850665357849    4.31499087617934    2.87375921421500
C        -1.09955878229302    5.35580619850190    5.11493886429228
C        -0.38933479872183    5.18515591046126    6.47508916747973
C        -1.04254571863517    6.08525087876378    7.52602737135123
C        -0.97669414161815    7.54729418173738    7.10061644439936
C        -1.65534217987219    7.73014522835152    5.74796119019273
C        -1.01138019788423    6.82871257866248    4.69791894383349
C         2.10708378088818    0.63884294553146    6.87809218280365
C        -0.43864529088040    0.72350618361703    7.85455972113928
H        -1.34703033098733    3.55288305397119    6.96441177887682
H         0.45461025764093    4.81351733771871    3.91047700667411
H        -0.42138859054566    5.76488602488269    0.76084031515873
H         1.09441656527582    5.11098058208740   -1.05725432534642
H         2.06323346995802    2.83728003925929   -1.09667311610805
H         1.51938263259193    1.24148027061660    0.69541149908052
H         2.65503069904337    1.30391261936529    3.54807654642662
H         4.34649596845017   -0.48135145227943    3.29063268336710
H         3.67074420461836   -2.70437061318228    2.45635920520608
H         1.31744780322512   -3.13243891100565    1.86148251849191
H        -0.36729626473073   -1.35894157827094    2.11284561441553
H        -1.70220573680776   -0.54380131399362    4.34922723148004
H        -3.93405442908091   -1.51300240693023    3.87942595288932
H        -5.21059177914731   -0.75823919303389    1.90638689096236
H        -4.26015356344836    0.94833362488594    0.40248996039302
H        -2.04571467827015    1.91436053143346    0.86748384526765
H        -1.70349660559973    5.26698608904117    2.59203665738202
H        -2.03520934584576    3.57687083870595    3.03839777886077
H        -2.14969389201690    5.04828041245955    5.22386218140324
H         0.67424784298906    5.44035644617875    6.36321907327090
H        -0.53363656148646    5.94228539323682    8.48087321228063
H        -2.08591569381765    5.78159577505165    7.64888998369925
H        -1.46402680282334    8.17134913241424    7.85083052369600
H         0.06754146629768    7.85880027147786    7.03077672846833
H        -1.57918288344778    8.77139152500637    5.43077463530291
H        -2.71550219670300    7.48282191128296    5.83539397827820
H        -1.51045465373826    6.98534643549161    3.74043167698017
H         0.04132919259521    7.09965849222605    4.57841170779590
H         2.76508024220820    0.52323276425851    6.02366371842805
H         2.17820472134496   -0.22273117414524    7.53113891317626
H         2.33005092957874    1.56390279569357    7.39787687321390
H        -0.19296702833129   -0.20033271906018    8.36473496792881
H        -1.50598011693678    0.77359493781684    7.65903675223279
H        -0.11107353442947    1.59231925751257    8.41590823851925

