69
CSD_code = JURMOA | q = 0 | S = 0 | Stoichiometry = C27H33Cl2N2O2PRuS | MND = 6
Ru        9.14125860133161   22.99007185283569   19.97744315855556
Cl        7.69614355305914   23.89465317383196   21.62886644870284
Cl       10.24358452226928   21.78875755758366   18.26203778532276
S        10.71941033050019   22.64888631023938   21.49252511148649
P         9.93556334205378   25.02274252061931   19.40064621316126
O        11.45317727351834   23.80799625136332   21.97726539178498
O         8.14611243396432   21.11894574651603   20.39564006794070
N         7.54332094376606   23.07683299956305   18.59328882000068
N         6.15572850413420   20.13485405124533   20.24390194178892
C         9.45184338672686   25.36417236129789   17.67086705609841
C         8.16882915383769   25.01619158980410   17.22797918990589
C         7.83306981477618   25.22219570479183   15.89759633284508
C         8.74140686971866   25.77027193294253   15.00776498117517
C        10.00496709540875   26.11995389464580   15.44749573750856
C        10.35605723887639   25.91506111333529   16.77010823368009
C         9.29080593007393   26.46014559501193   20.30304149395004
C         9.54442445912384   26.49198850833630   21.67348674087345
C         9.04912745107885   27.52744303226955   22.44164009735610
C         8.29730389803106   28.53195666995141   21.85096349210516
C         8.04585845985726   28.50222731567257   20.49006907779862
C         8.53755739002996   27.46715340934086   19.71258740083467
C        11.73185246011798   25.29760145695359   19.39633707351608
C        12.51866035332832   24.31603079669850   18.79637367687939
C        13.89469064201759   24.44019703841038   18.78476682069219
C        14.49696381536177   25.54075853632882   19.37407473403547
C        13.71753585263611   26.51996321678314   19.96555600560770
C        12.33828223235017   26.40457464854896   19.97821212847688
C         7.14500320886246   24.42329167424610   18.16267728250402
C         6.43791090410977   22.33388449432187   19.20131210702919
C         6.98416821481218   21.14906057033909   19.98622295835032
C         4.74661723423353   20.04690835260926   19.91407134415163
C         4.24976394109833   18.87091996085208   20.75561382751226
C         5.48264455661119   17.97444329038328   20.85408738932877
C         6.61276037847456   18.98404912133245   21.01026877451920
C        11.96484383362970   21.39387829759215   21.06850643882620
C        10.03562563380920   21.80942892705699   22.95696475615851
H         7.89918062653627   22.55843503861161   17.77581307647076
H         6.84414860571918   24.95436146368515   15.55054837681786
H         8.46073472010771   25.92047087614437   13.97601421249850
H        10.71973841220166   26.54941173795134   14.76150747989952
H        11.34438454993463   26.18433015016127   17.11214786313806
H        10.13022671874162   25.69569672363180   22.11455021504414
H         9.24083957546791   27.54981419103809   23.50434112511513
H         7.90419673709680   29.33810359974245   22.45361842606037
H         7.46033694013121   29.28572156384570   20.03009193508738
H         8.33937829332731   27.44537174732875   18.64919559594313
H        12.03812875100688   23.46172492438949   18.33813265651068
H        14.50058072470819   23.67552527094664   18.31969000304469
H        15.57357653745374   25.63331142763330   19.37405686063239
H        14.18595276172422   27.37863749021759   20.42489737840318
H        11.73649008161031   27.17082939688429   20.44446902352706
H         7.04386824781557   25.03888397199593   19.06759248779249
H         6.17244310628425   24.38350249645714   17.64977537879175
H         5.70082904779744   22.01617474380574   18.45144965424973
H         5.96328032912241   22.99902707723242   19.93684751315262
H         4.62159770521378   19.83873838814833   18.84413480006196
H         4.22823847287341   20.97680201368691   20.15694187177192
H         3.96340215865311   19.21984597588052   21.74774377245677
H         3.39768019263633   18.37130151209132   20.30073305986238
H         5.60961405978713   17.40644061638691   19.93202873536276
H         5.43185584305987   17.27989825198663   21.68879436244803
H         7.57004760285509   18.63586912478225   20.61730854989771
H         6.75381294847294   19.27538866582316   22.05692586798790
H        12.56954577132920   21.18763627081514   21.94357925030674
H        12.57497894468082   21.80657550879429   20.27239673288043
H        11.44076177361761   20.51174771006464   20.71790302952886
H         9.25130985766586   22.44919457538758   23.35139741080383
H        10.82336768729454   21.67588323262496   23.68894418632876
H         9.61989830148545   20.86355228814438   22.62666901773616

