46
CSD_code = JURRAP | q = 0 | S = 0 | Stoichiometry = C16H26ClPSiZr | MND = 13
Zr        2.65347733436734   -2.39241303706312   -2.08645274108958
Cl        2.60608161357641   -0.04109168063483   -2.25349097863946
P         1.34862103031706   -4.50240401356144   -3.76880710559783
Si        1.10642690448632   -1.49490570252861   -5.18874924556263
C         1.15653823764657   -2.67309017186732   -3.70586058649016
C        -0.35708605912042   -5.06428718117972   -4.26653780475914
C         2.14449685815716   -4.80804715332444   -5.41470584659404
C         0.01461139218641   -0.03387828645076   -4.60113704299046
C         2.83623150408396   -0.84390507329532   -5.69393940036873
C         0.28328021063218   -2.07316298432019   -6.83063552967109
C         5.14497919221845   -2.32651820616219   -1.45494454116380
C         5.03169752787896   -1.83223431125916   -2.76766550467117
C         4.56874159309047   -2.87971720069704   -3.59360066600402
C         4.42357665278652   -4.03696328551749   -2.78531957957421
C         4.79168904817648   -3.69214989786824   -1.47127543811056
C         2.65179406525006   -2.82043717616228    0.43588719936134
C         1.87175801736295   -1.66576449470419    0.24272589491008
C         0.71970917070398   -2.02971116871728   -0.48369280595395
C         0.78344242655563   -3.42044373294538   -0.72804460259252
C         1.98487981327970   -3.90760340281585   -0.17220877816368
H        -1.04788874069477   -4.90994148887085   -3.43936130429735
H        -0.33634795928883   -6.12602775513369   -4.50495365332728
H        -0.70221547603876   -4.50064341229915   -5.13167373690876
H         1.50180296173989   -4.45520782227046   -6.21654703888300
H         3.10649994051315   -4.30728884742945   -5.47028200056889
H         2.30275173523642   -5.88020422730446   -5.52957541730819
H         0.34443537180998    0.33579051700875   -3.63547137927371
H        -1.02794012214152   -0.32501771404267   -4.50957352623597
H         0.06056481870754    0.79317215619253   -5.30152014940413
H         2.72114754772670    0.01751187660981   -6.34454713817446
H         3.41885922305076   -1.57792386485232   -6.24294230198615
H         3.40447054207493   -0.52174652089086   -4.82514767712479
H        -0.63121316809491   -2.63103102080704   -6.65791335042127
H         0.94105220510030   -2.68880642684448   -7.43504588711098
H         0.02017913624703   -1.20626494003528   -7.42848299174500
H         0.21184037343056   -2.51614124281896   -3.15969328287223
H         5.55451111598570   -1.78189240216220   -0.61184039646943
H         5.33907647921785   -0.84837406081302   -3.09967830726549
H         4.53936238248398   -2.85146469373367   -4.67370924651701
H         4.23475651334423   -5.04181555284035   -3.14195223433647
H         4.90713883422887   -4.38772566406019   -0.65008549693056
H         3.53081375958599   -2.88436798008744    1.06595305766759
H         2.07459904897325   -0.68487008625171    0.65462405578681
H        -0.11519322005163   -1.37678961554393   -0.71270971402254
H        -0.01166551424644   -4.03325427417678   -1.13566581606456
H         2.26375567745852   -4.95194677545872   -0.10154996248407

