86
CSD_code = JURROD | q = 0 | S = 0 | Stoichiometry = C28H53ClNP2Rh | MND = 6
Rh       -0.03724099021042    8.08339588898039   11.22163018980636
Cl        1.55675529485952    8.51623048097555    9.48816701844301
P         0.26078407100348    5.81078362441153   10.82510192975035
P         0.09097516295050   10.33679208863056   11.77523450577169
N        -1.72313301967925    8.34739775428154    9.72763103073660
C        -1.24692028978878    7.67472083951852   12.71359942562534
C        -1.95241786614823    7.35566850010896   13.64614692156165
C        -2.83575553609591    6.99006993989830   14.69302964241363
C        -4.26101100924829    7.44237923131161   14.53558225118953
C        -2.41626768496355    6.28108696839415   15.73969444310114
C        -1.43462843641105    8.59195381294889    8.44898304415820
C        -2.40232323518873    8.79016886302327    7.47847923428713
C        -3.73825090736121    8.73384263439090    7.83721443926573
C        -4.04329252044681    8.47882679859478    9.16467884755634
C        -3.01122810117442    8.29323538054170   10.06721291551663
C         0.55905179625527    5.34394587164124    9.02479802460157
C         1.41323946857955    4.10981351053840    8.74127498495803
C        -0.75603326619262    5.24260793183481    8.25285610940053
C        -1.01340599198024    4.62940668746705   11.54072241941043
C        -0.75577669982320    3.13982512757005   11.33665409017145
C        -2.44478035946280    4.96278038371063   11.13123974013106
C         1.79834518554907    5.13502227727531   11.65150999907321
C         3.02941345296272    5.94630770706817   11.25504900330347
C         1.65818921491307    5.10850163417779   13.17284275804166
C        -1.16192120774217   11.01846159237499   13.00066699035946
C        -2.60946708446629   10.71529755186297   12.62705844570840
C        -1.02231512014025   12.49403867400219   13.36318055806895
C         0.16907800099745   11.50102072596073   10.29491421495399
C        -1.22293322667050   11.78774293458138    9.73245735432591
C         0.92769301857693   12.81650493297349   10.46114758719747
C         1.66420430241225   10.77972828725481   12.69219747100016
C         2.89933258870197   10.31166720885346   11.92795177702324
C         1.68123254443119   10.20026285459392   14.10634290778847
H         1.04548349640468    7.91912425709281   12.21893884063449
H        -4.30614952451655    8.53006239650601   14.47571560782760
H        -4.68513774345288    7.04037857364385   13.61444058258510
H        -4.86679751227275    7.10974625251723   15.37572441857770
H        -3.08468217301661    5.99727810351463   16.53606307265424
H        -1.39008760178034    5.96750305890726   15.83299449285340
H        -0.38178698059114    8.63496130796036    8.19577179599599
H        -2.10459781281168    8.98465309592122    6.46021716730840
H        -4.51936835939362    8.88427687722016    7.10689022666998
H        -5.06642005096432    8.42415533743588    9.50229831134333
H        -3.23162355457399    8.09537757332105   11.10775105234737
H         1.10145739664464    6.21951366351929    8.64514742575603
H         2.42769676463966    4.22165311504275    9.11191513851279
H         0.98148746186351    3.20656251246331    9.16368937962821
H         1.47259368852580    3.97642951494451    7.66084948907401
H        -1.44988921266335    6.02564720103364    8.54900915390472
H        -0.56819654327100    5.34478268233316    7.18420238683533
H        -1.22921134400267    4.27634651463999    8.41591947338095
H        -0.93998788828297    4.86147356639668   12.61080035238015
H         0.24712685793209    2.84669678368461   11.63351984257008
H        -1.46057177730138    2.57246973283511   11.94470893516103
H        -0.91384253994310    2.85362192558687   10.29962886370733
H        -2.61721093860442    6.02927517931649   11.22883087337131
H        -2.66223698894349    4.65677689274259   10.11195221841480
H        -3.14021507134115    4.44696572005474   11.79284045214846
H         1.92933483261630    4.10991042338923   11.28990265420217
H         3.06461637936244    6.13372036332500   10.18446626131159
H         3.01849493478438    6.91115417882523   11.75626528200640
H         3.93800659329736    5.42089299576038   11.54858029253688
H         1.01527883557018    4.29786371223483   13.50651073015321
H         2.63772055292416    4.96933942374887   13.62840936876137
H         1.24239263316327    6.04892827615451   13.53358165439905
H        -0.94555950415897   10.41133319229845   13.88932947264419
H        -2.71902117391994    9.65268387932747   12.43646702070245
H        -3.25915130558643   10.97886430745717   13.46185186738584
H        -2.93990307185204   11.27559079485952   11.75761192570052
H        -0.00923722747725   12.75675656257579   13.65388338782859
H        -1.32786187520164   13.13020052213447   12.53615863555720
H        -1.67620094117193   12.71605118293373   14.20684381783819
H         0.71060444092341   10.89604005022866    9.55583450444319
H        -1.84376693670647   10.89554471415701    9.73247297362517
H        -1.72449942344386   12.56099409404132   10.31107361823955
H        -1.14205093714090   12.14167885365341    8.70471991574215
H         1.97904292447012   12.65678515958690   10.67998215422744
H         0.86928414749646   13.36549052839001    9.52097260980186
H         0.49686327118982   13.44248522224669   11.23780652266154
H         1.69445751643996   11.87231342283055   12.75809741552887
H         2.86083257335401   10.59548436590529   10.87919313304093
H         3.79899838803145   10.73760565084117   12.37214848111054
H         2.97895500297021    9.22827605224909   11.96981448069892
H         1.03430423167287   10.75484604991593   14.78145164184632
H         1.36041559167784    9.15890900863633   14.09692732191277
H         2.69392594957186   10.24143647391192   14.50517302777213

