75
CSD_code = JURRIX | q = 0 | S = 0 | Stoichiometry = C23H48ClP2Rh | MND = 4
Rh        2.70289360629525   16.22856459883531    4.15121520736032
Cl        2.77596935785779   14.64659182701466    5.74706718643926
P         1.76644742740723   14.67598930594913    2.72574169500640
P         3.63545831901237   17.69155651175037    5.66375706060989
C         2.74534286065074   17.48023266093942    2.80406961102273
C         2.84176072420284   18.29857850053253    1.78657404911695
C         1.95963690271647   19.41065287188251    1.46953982802873
C         2.07954264720336   20.08880732042233    0.32811384871010
C         0.92035667866165   19.76732527612245    2.49392922868684
C         0.53850220423497   13.55234851193691    3.57537149554586
C        -0.17890569438768   12.52245480795539    2.71234138547218
C        -0.45026641482416   14.37792505009208    4.39842851771683
C         0.99370668749912   15.36342152771850    1.15966930901217
C        -0.26717656599436   16.14365184095792    1.52237916982759
C         0.73486993522165   14.42347867997047   -0.01359205254413
C         3.03135870743453   13.49320042250888    2.02452222446204
C         4.15932328629248   14.34974527833419    1.45089604397334
C         3.58413991317205   12.54213221407421    3.08116215173080
C         5.05440409330777   16.93126246759907    6.61030413846493
C         5.99573938794685   16.20328041628544    5.65081226814120
C         5.81641825919827   17.84141950900720    7.56489182572285
C         2.45092790613846   18.23113332637550    7.00662662616949
C         2.17226974252435   17.14159898925244    8.03716856819731
C         1.15723915004204   18.62622080980011    6.29566408266064
C         4.17586029488127   19.34376937095434    4.95442560424497
C         5.40850151281195   19.13934023536330    4.07724475000620
C         4.37191333527855   20.52577709326779    5.89913264470325
H         3.65079707537772   18.13160274036341    1.07813377285445
H         1.41994226115849   20.90528680668568    0.08775513416070
H         2.83413898997598   19.85273248060629   -0.40320856997716
H         0.04653490769903   20.21173804042297    2.02316673654563
H         0.62242006352711   18.88492234462231    3.05682921577181
H         1.32883270910618   20.49408316560962    3.19781334345973
H         0.51587775257366   11.97990914501073    2.07499990129108
H        -0.68055324198062   11.79948838889782    3.35550941681390
H        -0.93831520695581   12.99203552132300    2.09124864969484
H         0.07616670841952   15.19180723617023    4.90502632880280
H        -1.23507003403240   14.80521886730878    3.77998102755818
H        -0.91778359090091   13.75340944387895    5.15831110106517
H        -0.11072759122232   16.68997737028818    2.45302308448662
H        -0.50776540221944   16.86283767886309    0.74090078838226
H        -1.11807927626872   15.47730230930660    1.64183082782391
H         1.65722440472815   13.99593026705110   -0.39832687665876
H         0.05833348516302   13.61615728725015    0.24729966422363
H         0.27691258017050   14.99504180750809   -0.82094843555987
H         3.80653808179457   14.97560343224463    0.63350708736447
H         4.55288508399945   15.00409063607735    2.23587416170515
H         4.97083178183340   13.72464890541192    1.08062492154929
H         2.84154971335828   11.80925694584210    3.38784595494594
H         4.44285937050090   12.00347972494349    2.68132745821337
H         3.90845590301213   13.09452884127748    3.96115738206173
H         5.41205376543142   15.67192742227246    4.89214539545962
H         6.67251049323936   16.88879748591299    5.14794797600661
H         6.59280298760891   15.47189865984127    6.19361290759086
H         5.14017640853414   18.39207123340757    8.21537330443827
H         6.47227354693269   17.23906153661567    8.19338394912071
H         6.43903476060979   18.54844047878528    7.02146020407688
H         3.03706647161368   16.95945620104936    8.67087214587213
H         1.34557108961993   17.44677865473690    8.67832353251076
H         1.89782961944109   16.20908129447862    7.54895784790558
H         1.31529467078096   19.47290586958382    5.63058221518916
H         0.80179872664639   17.78087070285244    5.69571177102418
H         0.38177714793209   18.89112291018293    7.01318357540620
H         5.30763695311042   18.22022771962498    3.49968966784763
H         5.51876442704977   19.96987084245590    3.38115585944011
H         6.31168972833847   19.08399135819742    4.67996675399051
H         3.43889799721071   20.82222907544575    6.37205750483619
H         5.10457454011404   20.31685736260308    6.67228574571100
H         4.73019912383312   21.37765446597845    5.32097710294807
H         1.18061374438505   13.02347751962057    4.29109274523539
H         1.74308732619029   16.09767631887713    0.83749213477949
H         2.57015968433606   12.90446805429536    1.22435281774542
H         4.54172587719204   16.15780106418217    7.19617216806758
H         2.86982524746454   19.10157208356716    7.52241516469020
H         3.34209486882026   19.58691287354279    4.28364896513794

