82
CSD_code = JURSOE | q = 0 | S = 0 | Stoichiometry = C38H39ClP2SiZr | MND = 13
Zr       -0.75236165031952    0.16787332517061   13.45796955635169
Cl       -2.12509026549044    1.74824728774320   12.27873131178533
P         0.20926996230943    0.10075879296969   10.97766989828116
P         0.93337811920324   -1.90235164676686   12.72629220823732
Si        2.03854746737941   -2.26544288927033    9.72990769914926
C         1.41707442005027   -1.20012755829954   11.15771743385203
C         1.06657015594762    1.54197757320922   10.25219198778698
C         0.32361060307165    2.61217947351459    9.75583852612343
C         0.96697724281704    3.74785077457460    9.30165043207562
C         2.35066249919951    3.83091835711235    9.34836326382605
C         3.09135266953739    2.77875311145347    9.86188736335365
C         2.45101379832272    1.64326660120137   10.32329264001705
C        -1.02557914611417   -0.21161000456863    9.65301722831610
C        -2.25841470445336   -0.73040716611769   10.03799344405262
C        -3.21216093167776   -1.04870011681238    9.08864895336914
C        -2.94101125062758   -0.84895255833777    7.74419736016405
C        -1.71603917985898   -0.33166467996193    7.35387946427468
C        -0.75771561119509   -0.01831861517427    8.30112983489158
C         2.48696229748436   -2.13898602481727   13.68080829656115
C         3.71084633615977   -1.70087109660505   13.19201562430870
C         4.85267401148509   -1.80858089914871   13.96552396872458
C         4.77916727896773   -2.33820557155682   15.24325922503175
C         3.55706532879266   -2.74972439389014   15.75185325722800
C         2.41568179980307   -2.64102847588565   14.97939860947576
C         0.43516906602924   -3.65220226523254   12.45045344318816
C        -0.64683984369403   -3.82336173952150   11.58789560869229
C        -1.13169590107717   -5.08355751061025   11.30071657222871
C        -0.53299820454573   -6.19838308000178   11.86756816667780
C         0.55284888369800   -6.03942745019886   12.71117909276158
C         1.03521012930332   -4.77587931463803   13.00695413156774
C         1.09540096978431    0.60613482435389   15.08029094500953
C         1.53838769883464    1.09410916691164   13.82646546020741
C         0.75893328032821    2.22619068714822   13.50260956756686
C        -0.16379305669681    2.43446504899981   14.54463277204422
C         0.04992363751871    1.44557326980351   15.52360795088001
C        -2.44666967591736   -1.80090966167677   13.58781001199685
C        -1.56343285901824   -2.03068103902648   14.66678081703808
C        -2.64959990605461   -0.06141624373969   15.05522270591901
C        -1.68800203740732   -0.96289597382204   15.56995108733116
C        -3.13492191465941   -0.59690272487383   13.84203087940148
C         3.10549612241375   -3.71230541673044   10.38490123242055
C         3.14179444745505   -1.18015011891236    8.60443306379813
C         0.75734938339122   -3.10432139773832    8.57739061270572
H        -0.75624934577035    2.54534149771209    9.73578211444781
H         0.38999006980189    4.57475547816657    8.91370522573119
H         2.84982845999126    4.71972409064849    8.99100338523532
H         4.16874663335091    2.84750649180858    9.90618902975625
H         3.01119270377117    0.81451576905797   10.73269400993019
H        -2.46779990803276   -0.84945073132118   11.10056517715227
H        -4.17051414887164   -1.44359943820640    9.39389336085488
H        -3.68619825260005   -1.09132573536749    7.00112064497683
H        -1.50593394632582   -0.17466706374116    6.30577429842947
H         0.19979914672458    0.38093226044391    7.99756930093330
H         3.75160238146407   -1.27928175133532   12.19676841437158
H         5.80270034397023   -1.47519191346419   13.57368497173198
H         5.67011197002619   -2.42121141613393   15.84781524303903
H         3.49561345951746   -3.14867015593297   16.75444217795684
H         1.45625222184444   -2.94716169959201   15.38095431114159
H        -1.08515011291627   -2.94701376806813   11.11988006559584
H        -1.97167110337841   -5.20082750581524   10.63075240156638
H        -0.90647373746377   -7.18669117416595   11.64446910967355
H         1.03167819970319   -6.90671141709154   13.14262753019279
H         1.88929429413716   -4.67166809161435   13.65965327538471
H         1.58132219902433   -0.16713743956930   15.66346969650556
H         2.41923970164480    0.76038058252592   13.29355084151394
H         0.90401925656270    2.87845424824678   12.65085751472460
H        -0.85075691534006    3.26797862879014   14.62168660438810
H        -0.40397002395594    1.43199698851046   16.50673435282296
H        -2.69311710487992   -2.52574317010669   12.82279942780467
H        -1.00489347277199   -2.94272487452347   14.83153324553300
H        -1.23322467719008   -0.92051869750414   16.55127611970502
H        -3.05703136815962    0.80486744773072   15.56519279870435
H        -3.96500137162210   -0.20247045597716   13.26810082693108
H         3.88506978994402   -3.95737919242312    9.67100795343818
H         3.58402342286421   -3.49438739222341   11.33270531504615
H         2.49928847582892   -4.60149854007287   10.52477446598857
H         3.42294260088407   -1.73551821810619    7.71560334708037
H         4.05807220804089   -0.87584644444933    9.09977209804345
H         2.62999920220138   -0.27954571158148    8.28246457607106
H         0.01269691868221   -2.40813817177669    8.20760006731589
H         0.23563879178481   -3.91063877376001    9.08311378533606
H         1.26232156706486   -3.53236719996537    7.71628120627342

