56
CSD_code = JURSOG | q = 1 | S = 0 | Stoichiometry = C22H20BrN8O4Pd(1+) | MND = 4
Pd        5.48030858452153    2.50197301802250   11.65389931457638
Br        3.78454305530307    1.57266653774674   13.04446785424456
O         1.12330208229824    5.63077723729387   13.10481397418248
O         1.45274516768942    7.65990375091070   12.45899908081662
O         8.91758082667789    3.55153802505152   17.83141420502038
O         8.22639763337227    5.09676105647385   16.49892716018251
N         8.02772310158429    3.27386715670278    9.91946551474690
N         6.55547523770291    4.77837274931861   10.38055114399966
N         4.61995104924107    4.39727747722650   11.55332179189251
N         1.75972136664494    6.49977323014285   12.56700223800571
N         5.95601018770901   -0.38277414481111   11.11589180961602
N         7.06725219680365    0.30970135061595   12.83678030215203
N         7.24056864060229    2.46316548133795   13.64422694222537
N         8.44398436619850    3.94603976545545   16.79655391232975
C         6.93546570632004    1.38575083883448    8.06955611926216
H         6.30489643285131    2.23021864312616    8.30783027309311
H         6.57426216313186    0.73888190128506    7.29040416350590
C         8.08635000120452    1.15783108701512    8.67163198175669
H         8.69235897113707    0.30381671952774    8.40575172469942
C         8.69607659636747    2.00876023005177    9.75651399897649
H         8.65641540792206    1.46449617692414   10.70827895702881
H         9.74604081923811    2.19962978406700    9.51852708731482
C         6.84869561829966    3.45121324874803   10.52131328171859
C         8.47189306461719    4.45905001464290    9.38520277407260
H         9.39481936466755    4.53574526259530    8.84817104661443
C         7.55682657532728    5.40928492060277    9.67441701552361
H         7.55277524675908    6.45173069445133    9.43750934371162
C         5.38166207497871    5.29946517811524   10.90746315926825
C         5.01658461990757    6.63730891331933   10.77233644794454
H         5.65076756366120    7.33459030923006   10.25170274386900
C         3.81918015161554    7.05339840820927   11.32090908617542
H         3.48080752360018    8.07618313270633   11.24864606300548
C         3.03846913727580    6.10973147232695   11.97934712639757
C         3.46765772775237    4.79393768902487   12.07937384008040
H         2.85451450596297    4.06208845897109   12.59829131294394
C         3.37423187835483   -2.31501531651969    9.76319460419665
H         3.85079013411686   -2.63694091276310    8.85115237752191
H         2.51440779312760   -2.87920924841421   10.07676777201352
C         3.80164494830001   -1.27410692325554   10.45063475189125
H         3.30939962732937   -0.95601951799819   11.35887523471201
C         4.98254463575519   -0.43622263029456   10.04263289419002
H         5.45261513864616   -0.84374486931849    9.14366101792943
H         4.65655531901069    0.60531811601150    9.85270537810378
C         6.26796382650121    0.71223065985899   11.80563353451420
C         6.55882358112269   -1.48244475083235   11.67714570938867
H         6.43303279203055   -2.46704194737696   11.27643427836565
C         7.25416081371881   -1.05750865745310   12.75278179738029
H         7.85907623295562   -1.61385296110100   13.43623872342497
C         7.46670999476050    1.16250473094796   13.86652568853563
C         8.02695363057358    0.68440551020125   15.05258455387326
H         8.18421994156010   -0.36797594067544   15.21588295193991
C         8.35308343809885    1.59544507754972   16.03864801524155
H         8.77866447068537    1.28655052090414   16.98198411520288
C         8.11215199615566    2.94343732766815   15.79794498744991
C         7.55352180534714    3.33241543538394   14.58703895853038
H         7.36006523264497    4.37832052224330   14.38473986464743

