107
CSD_code = JURYAY | q = 0 | S = 0 | Stoichiometry = C52H48Cl2P4Ru | MND = 6
Ru        6.97077908162774    3.52134641213403    0.00022390114653
P         5.42609396446191    2.33931929671671    1.21185088237625
P         8.41209032114898    2.35977255808819    1.41572668334398
Cl        7.41986704592749    1.47252483358099   -1.21323887351022
C         3.83749289662321    1.78063478736173    0.52362163161861
C         3.87603222483292    1.30540795691086   -0.78499904868837
H         4.81084242653079    1.33635944121582   -1.33106643450162
C         2.73271797407581    0.80713584549670   -1.37996391479629
H         2.76952201774727    0.44127422309690   -2.39608626784876
C         1.54050660250800    0.78820670883970   -0.67343965503664
H         0.64286998906010    0.40547897064286   -1.13740477999556
C         1.49933578757647    1.25920222442021    0.62834826883410
H         0.57020701752771    1.24129005859760    1.17992855561266
C         2.64335032875058    1.75071419447265    1.23251877512506
H         2.60561413907648    2.11107375842286    2.25072655061717
C         4.98046355255410    3.05517810255070    2.81697974629209
C         4.11764076129720    4.14989975291009    2.79832263885051
H         3.69642327006623    4.47239275222747    1.85561321884859
C         3.81160137768789    4.81682475049341    3.96768242858228
H         3.14400621367220    5.66567988974858    3.94251493518646
C         4.37135181026722    4.40379130052822    5.16663864373247
H         4.13888034103859    4.92921272974777    6.08152956908162
C         5.23518032638567    3.32254213063275    5.19031462757172
H         5.68033266141779    3.00391371970242    6.12217825300174
C         5.54543695546995    2.65103584090905    4.02069203353530
H         6.23327995496457    1.81868063632064    4.05402968476381
C         8.86960865611475    2.92179962367526    3.09813558978127
C         8.32035049874158    4.06699695586541    3.65537967323541
H         7.63639843160871    4.67266889336779    3.08030971621983
C         8.63893168004835    4.43457225220029    4.95250270437383
H         8.20204914941659    5.32789394063969    5.37415679819183
C         9.50544618753868    3.66056661897598    5.70178681231956
H         9.75540557434982    3.94614560326147    6.71347490187541
C        10.05556953398943    2.51157898650636    5.15192441671599
H        10.73291646930785    1.90319226985963    5.73447498653468
C         9.73912521151759    2.14152950059082    3.86038774602506
H        10.17402502007171    1.24687191269832    3.43265674355225
C        10.06857796254584    1.87104955484054    0.81913570967301
C        11.14769458506779    2.69137680777348    1.14490894403865
H        10.99221795661648    3.54751919469485    1.78535125308217
C        12.41368397755771    2.41607442563875    0.66520166829530
H        13.23565787457968    3.06661831028534    0.92631365103535
C        12.62511585606661    1.31342079998793   -0.14605047998503
H        13.61434398905577    1.09740638662318   -0.52242482327030
C        11.56098827882402    0.49020138616449   -0.47165918765363
H        11.71614569869166   -0.37138435951919   -1.10503129651609
C        10.28959605225568    0.76629881166129    0.00118407162835
H         9.47026498432070    0.13131081752201   -0.29992608263736
C         6.13510610793098    0.67824674120894    1.61049343647213
H         5.56967011914444    0.24460603274471    2.44235532213589
H         5.93514688522122    0.07644727347509    0.71723201649766
C         7.63802054295675    0.72310151309257    1.88647429759669
H         8.14432525696733   -0.06469829562770    1.32396435353591
H         7.84930875494781    0.56449330216597    2.94835319567167
P         8.51531931849181    4.70243459338061   -1.21258089367876
P         5.52895412483438    4.68219369987517   -1.41513273115874
Cl        6.51638988251610    5.57063960354587    1.21154243033562
C        10.10421504724373    5.26110400186877   -0.52510749110888
C        10.06614891215331    5.73687740714308    0.78332534341042
H         9.13162263164113    5.70592680656955    1.32984544353501
C        11.20955344783270    6.23581084459332    1.37750823380660
H        11.17307158959426    6.60220576473327    2.39344821498574
C        12.40141993036796    6.25474097176740    0.67041855886292
H        13.29914164595340    6.63799151784209    1.13377775640809
C        12.44216174868949    5.78301868574037   -0.63111959371918
H        13.37105611999571    5.80086572809600   -1.18308989958322
C        11.29802130789407    5.29089725477239   -1.23454644133639
H        11.33536248501097    4.93009874831875   -2.25261786434285
C         8.96002776257240    3.98602549156384   -2.81769599600758
C         9.82214732109128    2.89074261092577   -2.79858055638470
H        10.24338390580260    2.56862696659365   -1.85573541871844
C        10.12727164077606    2.22272578226341   -3.96753951329704
H        10.79409055326725    1.37327641780750   -3.94195952328959
C         9.56738844598232    2.63533282098362   -5.16658890031842
H         9.79901948683519    2.10898615349343   -6.08116183755994
C         8.70452875331917    3.71734368098962   -5.19076885935268
H         8.25944988063350    4.03574353659629   -6.12275030998005
C         8.39507351624902    4.38987268213544   -4.02150540004344
H         7.70792247489452    5.22279419311853   -4.05527010955856
C         5.07008613926868    4.12014071867551   -3.09711984500325
C         5.61917032199187    2.97526647089540   -3.65515481583311
H         6.30367490292710    2.36948166611982   -3.08080134906235
C         5.29966855045179    2.60822207952610   -4.95222331127835
H         5.73637698294677    1.71517094809293   -5.37462666986689
C         4.43245109856116    3.38238110468665   -5.70054637210523
H         4.18181002507504    3.09720298069950   -6.71217633312819
C         3.88246425313502    4.53102082756448   -5.14981808422656
H         3.20454908459706    5.13953893602477   -5.73156704429939
C         4.19984480671007    4.90056454583876   -3.85839091764490
H         3.76518361048876    5.79498010787382   -3.42991528583468
C         3.87291807025837    5.17144230144507   -0.81761609201763
C         2.79342453945141    4.35123779794687   -1.14245958681261
H         2.94834645498446    3.49477037857747   -1.78258259029592
C         1.52774290202284    4.62703034987327   -0.66223122576078
H         0.70553018449611    3.97647391252146   -0.92256419623729
C         1.31694710931416    5.73021099342727    0.14846586811445
H         0.32794196919681    5.94665425854166    0.52518378280365
C         2.38144072300471    6.55335192305601    0.47310759869430
H         2.22674113913839    7.41539328269112    1.10596743296844
C         3.65258535379154    6.27662206752931   -0.00007554194455
H         4.47229734816264    6.91140791893501    0.30047249514869
C         7.80605219386431    6.36341016508188   -1.61125060662445
H         8.37127749872376    6.79691711984406   -2.44331989521873
H         8.00620683247447    6.96539162562933   -0.71816523095068
C         6.30309879589518    6.31851688393788   -1.88698846942168
H         5.79689375546066    7.10679730018914   -1.32505642449480
H         6.09172308223895    6.47632723391976   -2.94897012372315

