60
CSD_code = JURZOL | q = 1 | S = 0 | Stoichiometry = C17H39IrP3(1+) | MND = 7
Ir       11.95944921858659   14.10689011004663    6.21951404156205
P         9.84213247798789   14.97972240874285    7.56183086515830
P        12.28223844238849   12.29128354331478    7.73602642951364
P        13.47585695279906   15.52231748277565    7.45373179863576
C         8.88403235763437   16.33185442173952    6.76802973541374
C         9.84766305202919   15.63865862860044    9.28594388876067
C         8.49802470596229   13.73529051768584    7.73765975700512
C        11.88196744284451   12.41508723020518    9.52697178732985
C        11.41656880299927   10.69585240160840    7.43375462231485
C        14.01743082192057   11.70164943980022    7.81481989644258
C        13.69547610859345   15.45152075773218    9.27966521687428
C        13.13497831824157   17.32516456812770    7.31552115374074
C        15.25130194998450   15.46107586556054    6.98296748514726
C        11.45901113957295   15.54020196486828    4.63804411560136
C        12.82121105836721   15.25343020316185    4.53337052330113
C        13.45326568262048   14.36544122748327    3.49144505319624
C        12.73179925082565   13.02455161603863    3.33979770530698
C        12.08186744189495   12.59428428725531    4.63662700176379
C        10.74144142611293   12.88480646827769    4.94989857769403
C         9.83780609652439   13.68198158515856    4.03749164049900
C        10.44331090006872   15.03505922206183    3.63470269015577
H         7.97142342669173   16.52617922419149    7.32974030540417
H         9.48198425668807   17.24052436401854    6.73760155375801
H         8.62492335420579   16.05161550407853    5.75083673315771
H         8.83362706318495   15.89249214448889    9.59111062339895
H        10.24938213238387   14.89929627810061    9.97411819831309
H        10.46351419334468   16.53434960478853    9.33444131855378
H         7.62214291429562   14.18588882201507    8.20201532880671
H         8.22401805955852   13.35131614336267    6.75827757793985
H         8.83844439681140   12.90352160567453    8.35034213711620
H        12.21794967653725   11.51148419168659   10.03438584641196
H        12.35598788757142   13.27573725788024    9.98469423154143
H        10.80433773894926   12.50485782984637    9.64503072055436
H        11.74135834594009    9.97237989875441    8.18083488120679
H        10.34136302390990   10.83474952300412    7.52658652597618
H        11.63488877685214   10.30002578990081    6.44578279668896
H        14.08829511079121   10.80453665675678    8.42804451365924
H        14.37059165731819   11.48145693022052    6.80995936607086
H        14.64874928416467   12.47872290218068    8.23896607840221
H        14.34352926531925   16.26858409732804    9.59532250275503
H        12.73617739301909   15.55115051301215    9.78075875185035
H        14.15905891511485   14.51054335131706    9.56665872479487
H        13.90011264969197   17.88880044894341    7.84775122073243
H        13.11715383336988   17.64854158317743    6.27799943167223
H        12.16372893980948   17.53592476814752    7.75947889664686
H        15.82025919363413   16.16422282023033    7.58977077315069
H        15.63248671518846   14.45582469940940    7.14829609134351
H        15.38560307179434   15.70619426931002    5.93330870211342
H        11.20281604221971   16.49685091232748    5.08636145964794
H        13.50556442654143   16.03097372387543    4.86290725268338
H        14.48832590046726   14.18199217404325    3.78563548617368
H        13.48085397083736   14.90553190065740    2.53918618836275
H        13.45034876576923   12.26491257673304    3.02962204976047
H        11.96881257256352   13.08150051303474    2.56313253732618
H        12.49398896688748   11.66901924327723    5.03025271344044
H        10.19458998505067   12.13459194306384    5.51785215615193
H         8.89286726361473   13.85221771594424    4.55682553758954
H         9.60754514553947   13.08583930395960    3.14861593889589
H        10.92721776358268   14.96074983751936    2.65995705907608
H         9.64434427271611   15.77117498343237    3.53542380340485

