88
CSD_code = JUSDEI | q = 0 | S = 0 | Stoichiometry = C41H40BrCuN2P2S | MND = 4
C         2.02612543506412   10.26606958347219    3.10377065914727
C         1.43233227748463    9.02459560260556    3.32333461037529
H         1.75897904361003    8.17392149731386    2.73274719226139
C         0.44618537043362    8.87663401890303    4.27776265656727
H        -0.00427994145747    7.90854467136361    4.44356099033675
C         0.05019003645560    9.97186906077324    5.02979010721101
H        -0.71414450803473    9.86003555923034    5.78445280209343
C         0.63996363247924   11.20737307506095    4.81953286650363
H         0.33252319781356   12.05879834303735    5.40912341309871
C         1.62677634990104   11.36016341081569    3.86137290816278
H         2.08811644108108   12.32514829751578    3.70550671402548
C         2.44997843044457   10.43720369021477    0.29677716707121
C         1.06539784502616   10.37181350096853    0.19801813546125
H         0.46177953601459   10.24928890731624    1.08650980721288
C         0.45927570975083   10.47280242658234   -1.04138678648730
H        -0.61783549989229   10.42628138451660   -1.11333443602214
C         1.22319653883790   10.64048671930000   -2.18380361957964
H         0.74213361005240   10.72950517395659   -3.14691399446797
C         2.60554310240703   10.68271640824925   -2.09163833650702
H         3.20578655145572   10.79979946158780   -2.98257481298218
C         3.21758776466043   10.56764938661045   -0.85963811176795
H         4.29630306426867   10.56791767458438   -0.77867630426795
C         4.06839892480369   11.95703843762477    2.07886626739444
C         3.91193667151534   13.00471927851564    1.17830104530237
H         3.29031830160243   12.87909445584264    0.30248285043511
C         4.54160838190262   14.21505488507319    1.41159743052585
H         4.41581590557137   15.02630185769856    0.70846707712270
C         5.32394388902375   14.39226963298913    2.54066585834083
H         5.80976183965989   15.34096541280796    2.71780282517760
C         5.47538107761366   13.35371120205870    3.44638672962337
H         6.07099029120956   13.49271408111031    4.33730712141603
C         4.85975463664165   12.13892883934888    3.21301210233322
H         4.98437062385513   11.32521050858013    3.91545937227200
C         2.99997253936265    5.46193642851964    2.82432781771758
C         2.88802690295218    5.85367625055212    4.15321392396542
H         3.27585253130132    6.81435796915045    4.46594520804630
C         2.28802423654091    5.01462333373008    5.07576570592451
H         2.20516171841140    5.32289058806351    6.10740189033680
C         1.80268651863041    3.78221301170144    4.67375981040311
H         1.33440363571843    3.12538065533633    5.39217183471569
C         1.92306512908468    3.38356550312473    3.35049158381646
H         1.55053758298905    2.41746603052050    3.04141077412969
C         2.52288922651155    4.21636734346286    2.42610966098464
H         2.62451984468428    3.90774059020454    1.39453212923171
C         2.63767533931061    6.72590088263657    0.28301157781164
C         1.27093120568212    6.52238988793483    0.44199303868529
H         0.88009553603613    6.17418025957963    1.38922935929458
C         0.41238728549175    6.75366325257175   -0.61753519164713
H        -0.64831178599597    6.58947347603150   -0.49212454964614
C         0.90764061396731    7.19021131955421   -1.83442745911166
H         0.23404133151146    7.36070497154400   -2.66131598349807
C         2.26626846230489    7.41749065652342   -1.98937620313020
H         2.65195352939510    7.76777615458999   -2.93541730415454
C         3.12723967982357    7.20443255874312   -0.93177840928435
H         4.18662889886264    7.40401655422630   -1.03184604144154
C         5.10596366113849    5.47509831064513    0.99696385682583
C         4.95992164264546    4.67553322152140   -0.13026704385566
H         4.04426972307275    4.70300969650820   -0.70552938191084
C         5.99901953055143    3.85166512070743   -0.52317279473229
H         5.88633769474599    3.23181965241016   -1.40146134951847
C         7.18015779562676    3.81990785901781    0.20005442752618
H         7.98767912785562    3.17587591747335   -0.11649231715165
C         7.32836142729049    4.61658885613661    1.32368181607594
H         8.25008895392804    4.59789234750976    1.88621424971930
C         6.29512882468538    5.44318429041231    1.72033774582989
H         6.40584573356154    6.07550959645773    2.59212545013769
C         7.17820742170745   10.25805457736215    1.00111515330837
C         8.40360081552598   11.48507805191642    2.52328330638615
H         9.41996347058900   11.27912606182909    2.86911878355509
H         7.87337182599668   12.03561846259597    3.30598517740248
C         8.37192474212574   12.22781885581851    1.17725435853879
H         7.94807624168279   13.23200235957357    1.27107867923933
H         9.36751480627619   12.30790206978392    0.72342280080560
C         7.37956819396906   11.61264175659231   -1.05811987471866
H         6.87636406638580   10.73087057845163   -1.46435277202592
H         8.37768854448903   11.68287451686827   -1.51132129775081
C         6.57732281628359   12.86977127657519   -1.37543790131997
H         5.60342940062016   12.82457299482286   -0.89544038177522
H         6.43727520991826   12.95219579963720   -2.44972407955485
H         7.09557392152463   13.75926898815412   -1.02498324417241
N         7.72083913555167   10.24703794699761    2.22268120809936
H         7.39689655161487    9.62902111658109    2.96560605226574
N         7.51476827262088   11.39545260044540    0.35566773313109
P         3.35932384981407   10.29217023912884    1.86563966100537
P         3.82357421091297    6.59030796036786    1.64991325128858
S         6.25786470561290    9.03893288774931    0.34488742968374
Cu        4.63563387987107    8.51168915481223    2.43567872108576
Br        5.86435930764235    8.65202275152199    4.39380709570597

