85
CSD_code = JUSFIO | q = 0 | S = 0 | Stoichiometry = C40H38ClCuN2P2S | MND = 4
Cu        3.34289979944957    1.55605538084552    8.87601165100668
Cl        2.66565665698428   -0.59253983666705    8.31462343969319
S         5.42189853874228    1.57276546715668   10.11729859877061
P         1.87826913353698    2.73339429775035   10.11398948557515
P         3.62831121230597    2.45529549558482    6.81862678117016
N         5.58022799816026   -0.80929480232646    8.90045906817210
H         4.58924758047573   -0.78446246391274    8.59222398201694
N         7.19734798504236   -0.40348445340320   10.33698502461757
C         1.75672198893271    2.18291428035847   11.84635845543450
C         1.99924474300959    0.83057145820318   12.06905878923759
H         2.26863599451840    0.20018463503116   11.23015439887139
C         1.90367068483423    0.31025108687247   13.34605921339891
H         2.09341001210002   -0.73921459589917   13.51806603129354
C         1.56962874721332    1.13898245962017   14.40480484803265
H         1.49873642920393    0.73631526265423   15.40487839463665
C         1.32985759948812    2.48622576274486   14.18528912109299
H         1.07150277225461    3.13024513815592   15.01388615822149
C         1.41951826471888    3.01257048368784   12.90972887984063
H         1.24057720941818    4.06574109771118   12.74250684244029
C         2.26105202087149    4.50015270211553   10.24637215871371
C         3.33836973303467    4.87288924040035   11.04962003540993
H         3.83631808048766    4.12058802121944   11.64752232008566
C         3.76654899355347    6.18572259431282   11.07112744355279
H         4.59349446541013    6.47146898671813   11.70528554394157
C         3.14372355696772    7.13309862572435   10.27320969113404
H         3.48093983600797    8.15925107074543   10.28734300645153
C         2.09471848906346    6.76119932380832    9.44894059758475
H         1.61807980923965    7.49661002343493    8.81643411964792
C         1.65577414873221    5.45016268812047    9.42917680269062
H         0.83743982468513    5.15822110633215    8.78537931698992
C         0.11914553507203    2.67951294214516    9.64077034562412
C        -0.83185929416659    3.55643094828779   10.15371079327594
H        -0.53677571097643    4.32581859906202   10.85364029664299
C        -2.15185843088479    3.44170990153920    9.76141726798743
H        -2.89003206705567    4.12651464632079   10.15431126322207
C        -2.53267823281755    2.44905083166295    8.87125785513109
H        -3.56683510751942    2.36569731806293    8.56973357226805
C        -1.59228902943036    1.56222178039845    8.37621564950120
H        -1.88801438273397    0.78099139865117    7.69199684735749
C        -0.26832889245012    1.67734892516483    8.75899395887644
H         0.47387564659049    0.98935932229795    8.37848922908714
C         4.24677431345804    4.16882265486224    6.71404597184712
C         4.83724881134259    4.70614514342417    7.85115702914519
H         4.91527616143102    4.09914099042193    8.74427148218421
C         5.31899733286800    6.00291734889747    7.83574064185972
H         5.77569103583928    6.41746913704988    8.72204391269596
C         5.21109343205574    6.76476356834996    6.68514998605851
H         5.58131868038388    7.77966545366408    6.67172330000344
C         4.63306918491742    6.22683699910737    5.54490050412509
H         4.55705275205780    6.82215671326476    4.64609668512327
C         4.15515458355282    4.93049210289908    5.55354897884272
H         3.70583358574259    4.50695218059378    4.66588404842592
C         1.97126940811098    2.56258763189077    6.09775805159840
C         1.20626273089461    3.72147253225173    6.19460917305531
H         1.65357895680320    4.62534853517528    6.58577229821334
C        -0.11488387236380    3.71453999080350    5.78693965549248
H        -0.70523614359386    4.61695120737086    5.86168264145678
C        -0.68461465566217    2.55423188330150    5.28964452739145
H        -1.71737259313269    2.55379186653735    4.97285748310588
C         0.06717066357363    1.39230654924681    5.20947985810524
H        -0.37998479752475    0.48297458171877    4.83450533221041
C         1.38555969386209    1.38979696247858    5.62178740890455
H         1.96879455686022    0.47900527637571    5.59503236673759
C         4.62826135226023    1.66681825921943    5.51406815540837
C         4.27092156023133    1.59809475648879    4.17249912338039
H         3.33248752680087    2.01739043010328    3.83671475863943
C         5.11579386302230    0.97840499935437    3.26941434680091
H         4.83721635635704    0.92318375584439    2.22667289332291
C         6.31390834907471    0.42762968973158    3.69441821848131
H         6.96578177706923   -0.05816636272434    2.98294323965035
C         6.67277555603557    0.49474104330947    5.03104048290493
H         7.60572612336152    0.06196730482784    5.36320734182321
C         5.83229224979871    1.11082949635777    5.93806883521874
H         6.09121703646031    1.16392299551932    6.98770131368774
C         6.06783603042015    0.06972474056813    9.77525383524790
C         6.33168661377839   -2.04642690767522    8.91827866260527
H         6.60747957266632   -2.33113918427701    7.89983837884807
H         5.73151650198470   -2.85303273568790    9.35175862632264
C         7.55052592025856   -1.69791301874979    9.79014145533554
H         7.71593035651426   -2.41993518191083   10.59563399041322
H         8.47297031762995   -1.62165114274330    9.20027382119762
C         8.09167747580984    0.32473305511584   11.18299682606629
H         7.61953706262047    1.27211292530148   11.43611477841531
H         9.04058186715344    0.51789163439596   10.67316645958590
H         8.28925036702908   -0.24048701279066   12.09660584107250

