92
CSD_code = JUSFEK | q = 0 | S = 0 | Stoichiometry = C45H40BrCuN2P2S | MND = 4
C        12.03028585655130   12.41805412027762    1.74239369640220
C        13.86317763640236   13.80643090720542    2.00924879722559
H        14.66331556070735   13.92543922242500    1.27252813250341
H        14.26511938302755   14.03229975573307    3.00070699818444
C        12.62686643635336   14.65470760933875    1.67683631574684
H        12.37347238774802   15.32090106218533    2.50678549667810
H        12.75735627361500   15.25192556580130    0.76978388063344
C        10.29174661971427   14.04614583398346    1.05408657799586
C         9.48304519763822   13.17973834283203    0.31902968679537
H         9.85053460435339   12.20587491631050    0.04278891135972
C         8.21102031743992   13.56444089257589   -0.05884541823927
H         7.59999554455182   12.87734795397765   -0.62570728419965
C         7.72581826172583   14.81863624652479    0.26933003879416
H         6.73042430405227   15.11497439289748   -0.02542172547171
C         8.53810492457199   15.69581281647832    0.96614170466812
H         8.18023663149352   16.68451625559755    1.21368607616649
C         9.81128429026046   15.32122236031579    1.35158081214732
H        10.42454799794621   16.02252128499310    1.89370160225013
C        10.39080145271015   11.72210348788730    7.00777101511073
C        10.40702231107519   10.39569031015126    7.42950330688648
H        10.38213554189512    9.60509249451496    6.68659371268544
C        10.46513382455152   10.08448255814241    8.77386571073897
H        10.48171606131714    9.05050649224905    9.08709842754506
C        10.51482774152859   11.10377192280921    9.71109509933354
H        10.56831651632857   10.86745738811258   10.76346026442196
C        10.50352189248922   12.42667560316811    9.29853759605332
H        10.54528314732578   13.22007499858723   10.03062746453441
C        10.44228499258612   12.74105733967682    7.95286396419499
H        10.43696246904470   13.77451889152818    7.63559496744571
C         8.55003551519157   12.13072108157129    4.88084789123493
C         8.16720377226914   12.23806714862034    3.54611177356200
H         8.92028887746024   12.20787817409404    2.77049915506200
C         6.83422542797781   12.37916146023474    3.21479706280504
H         6.54942785604457   12.47767789243999    2.17781980368324
C         5.87269000876310   12.39363222930039    4.21208296752626
H         4.82914902220635   12.50545274109057    3.95619253598225
C         6.24766957198014   12.25578732603499    5.53837128955028
H         5.49651561339717   12.25695154057441    6.31546482044518
C         7.58189442394880   12.12410285107284    5.87811809480977
H         7.87052261552820   12.02181664422882    6.91519760383967
C        10.87856488068697   13.72805792293847    5.08593313328547
C        10.05309681179144   14.78441128282684    4.71806901491005
H         9.01363820499707   14.60698348162144    4.48120901128434
C        10.56464551972889   16.06970191343865    4.66543193469242
H         9.91437753452075   16.89077840418684    4.39852727671569
C        11.89806011826784   16.30783743617901    4.95850266585521
H        12.28939413646647   17.31416160162828    4.91713266068832
C        12.72971735124384   15.25272951422800    5.30410373331594
H        13.77087308927273   15.43218830104788    5.52892451385591
C        12.22411320711025   13.96842401247275    5.36606160656624
H        12.87143115507510   13.14509933877875    5.63784340220520
C         8.87642322458782    8.62018108465934    3.74122094029895
C         8.45744595833967    8.83569562418054    2.43069008432019
H         9.18019688810168    8.79683242966877    1.62749820805226
C         7.12861559013872    9.10429545691347    2.16533806926230
H         6.80729612930262    9.26263948044565    1.14615532167584
C         6.21107632597348    9.17355141586650    3.20100460066258
H         5.17121579394699    9.37609273363011    2.99068503647295
C         6.62937002484748    8.99582584655510    4.50931644300210
H         5.91866816667227    9.06743900876289    5.32000507539165
C         7.95822646612765    8.73424809843581    4.78287435181131
H         8.28370647309117    8.60813566427841    5.80785462769328
C        11.25054430572425    7.40191949604080    2.72020913891245
C        10.50235533070135    6.35991930728988    2.18121050389243
H         9.50567608064273    6.16026447304023    2.55026534753502
C        11.03428871667085    5.59002022119431    1.16500363851596
H        10.45229828154952    4.78297401052673    0.74306109982385
C        12.30986152750550    5.84896442148792    0.68658619262384
H        12.71799550657567    5.24364325412026   -0.10969545361031
C        13.05888061786746    6.87996440199859    1.22698673634585
H        14.05266355363257    7.08302757393306    0.85648159777147
C        12.53157542509273    7.65476718864052    2.24422725457419
H        13.11080061905042    8.46397639880057    2.66750601916003
C        10.71056479471406    7.19149981679004    5.43415982302866
C         9.74734761949462    6.20990154806210    5.63741846897458
H         8.87364374879003    6.16577070182345    5.00228953944427
C         9.90559949808448    5.29566967966831    6.66250229731518
H         9.15461077090549    4.53504741335450    6.82142653972216
C        11.02107734221495    5.34936436785192    7.48350639963061
H        11.13579669804644    4.63228438150561    8.28314279895953
C        11.98787785517678    6.31974068090350    7.27848636229534
H        12.85997789673093    6.36329540321854    7.91395897942795
C        11.83265627782920    7.23815222146401    6.25707560843815
H        12.58295839367549    8.00176887058955    6.09222958027536
N        13.35049776487450   12.45743240177664    1.96636485752668
H        13.81989091261861   11.71629998675613    2.48263334856517
N        11.57188015913868   13.66997225103401    1.46761189752099
P        10.64476430259784    8.43239912031534    4.09556917338688
P        10.33645927282620   11.99148281789986    5.20620482949007
S        11.14684410889259   11.01352973555155    1.80445049773784
Cu       11.69630893430086   10.37868245686530    4.38188679263316
Br       13.97286974164564   10.69258522457705    4.62718958834460

