59
CSD_code = JUSGAH | q = 0 | S = 0 | Stoichiometry = C26H26N4NiOS | MND = 4
Ni        6.37913367340428    8.53791663798253   23.13155894014340
S         4.53591792332116    8.84536445191754   21.94939344193728
C         4.73995281510540    8.05372027070320   20.43690954608086
N         5.57716899296241    7.06375219162938   20.18633198510346
C         6.42678785298435    6.52437911892353   21.04223162012635
N         6.77146430173504    6.96066006192382   22.22866986565050
C         7.68907417954020    6.13508829726416   23.02148935285169
H         7.66094946909706    5.09358808608307   22.68636486978727
H         7.36035848660257    6.17055549563236   24.07004864576568
N         8.24230363213513    8.75242331288558   23.84879819150104
C         8.55058514901102    9.54595696546298   24.83569899040934
H         9.57800509062827    9.51731044877068   25.20841771566610
O         5.77055166696220    9.90154966207954   24.19099594544819
N         3.93260275275698    8.40618168993657   19.42133348915511
C         4.09327951654312    7.75119707493466   18.13805039113830
H         3.16747785090013    7.88038895402123   17.57360567921351
H         4.25602911033347    6.68704483355485   18.32603347164568
C         5.27726634120411    8.29333311666165   17.34171461645511
H         5.37136943166445    7.74816540777765   16.40629956086599
H         6.18876953031259    8.16082639491826   17.91680427442807
H         5.14952288996186    9.34920867154671   17.11882686952798
C         2.96992136973650    9.47659742866241   19.55601234969297
H         2.18134730745455    9.31590826932132   18.81706117711682
H         2.52913625835546    9.41704597010206   20.55424711613500
C         3.59003870705939   10.85951075026617   19.36553012492287
H         3.98446634630351   10.97552754626452   18.35950451729851
H         4.39583276747683   11.00317303993356   20.07948213848690
H         2.83714941293972   11.62411755260251   19.53474683958499
C         7.02691355664554    5.28183443721436   20.46557245469064
C         6.34840046572494    4.07175269066116   20.52634019599761
H         5.39534232033269    4.01922399194327   21.03220029620558
C         6.89719703198990    2.94129514686405   19.94632989398205
H         6.37035261398478    1.99998102148915   20.00151820449551
C         8.11671889942741    3.01673096260061   19.29435721545537
H         8.54291307749760    2.13342073916637   18.84185862004714
C         8.78592552766051    4.22660823492022   19.21821092786579
H         9.73368328827934    4.29039952300728   18.70399876799311
C         8.24407279381844    5.35871685284551   19.80125639654993
H         8.76221193951322    6.30467038765249   19.74457153931442
C         9.07896467279704    6.69044473745283   22.88959590115988
C        10.11887772599263    5.95295665616258   22.35188318079164
H         9.94730994291171    4.92382466558145   22.07109346217333
C        11.36880530787431    6.52187469207270   22.17216575317057
H        12.17381581372760    5.93596811404703   21.75548271440825
C        11.57263405298784    7.84929012540537   22.50772274673445
H        12.53570998553267    8.30882039007237   22.34154249812062
C        10.54599701846877    8.59586062000158   23.05457487311721
H        10.70387002003695    9.63962124535086   23.28477793896756
C         9.29265529770248    8.02201190099819   23.27142741239369
C         7.69180379424061   10.44215749903455   25.50681354882117
C         8.19805816207904   11.22241181063051   26.56748536986068
H         9.23544845903792   11.09676004647666   26.84715597755809
C         7.40900453105301   12.11937372699276   27.22980086986585
H         7.80844578229197   12.71159929906279   28.03879667988941
C         6.06627599874083   12.27011311081558   26.85053912511490
H         5.44546046393818   12.98196573672037   27.37581309663057
C         5.53727168173664   11.53295257268178   25.83069685317071
H         4.50486353106819   11.63833593931207   25.53378769144701
C         6.32053341641515   10.58163142100331   25.12026806786598

