71
CSD_code = JUSNAM | q = 1 | S = 0 | Stoichiometry = C34H34O2Re(1+) | MND = 10
Re        0.44993540415185    8.60219654556797    3.45918656932079
C        -1.39570196839932    8.80007790788968    4.00099918465056
O        -2.47045135427713    8.99202931892304    4.33844122093566
C         0.59345216574129    7.29984722824006    4.89534994661501
O         0.68820110018771    6.65652456980098    5.83621267742105
C         1.24548449601299    6.23146832555395    1.60031475097325
C        -0.08697920791917    6.68412323042678    1.74003703334964
C        -0.50252290903473    8.00932657012412    1.40915817354168
C        -1.93922845082541    8.29065306857499    1.07534453393565
C         2.16680891841158    6.66053987302846    0.56991992742757
C         1.66632348115463    5.04589880840514    2.38265837912827
C        -1.11565433661057    5.65436277500124    2.07662385369789
C        -1.67420057566085    5.45983144865819    3.33139196511946
C         4.42662588487936    6.74439002693920   -0.30545566060158
C         2.75028351924139    4.11359908481841    4.32075223095128
C         3.95750262618156    7.27660751051470   -1.49682296054530
C        -1.53339498261965    4.85308262387631    1.01490657992010
C        -2.62479425969821    4.47214036888614    3.52468969283197
C         1.40709297683818    3.75936233736796    1.92213926107812
C         1.80050905862260    2.66393540728848    2.66889849013735
C         3.54710916552106    6.43218020588121    0.71326494733478
C         2.35723849799301    5.21118063076595    3.57809100830906
C        -2.48635359788005    3.87101264195193    1.21112514541044
C         2.46668871698275    2.83586061552742    3.87018014803199
C         1.70852461070626    7.17211910253472   -0.65715640911206
C         2.59414875159864    7.47403988688369   -1.67087059683143
C        -3.03061896515965    3.67438777766635    2.46882153141386
C         2.77037280480989    9.64514308744455    3.07095690008684
C         4.09585752670911    9.07418299760633    2.71539505654461
C         1.89323819640133   10.29993222127154    2.13191559738531
C         2.19703888223279   10.46357617559864    0.68175289368242
C         0.84195229918175   10.90599490240695    2.84283696950596
C        -0.15695402834825   11.87690541225018    2.30448703133943
C         1.03904827374958   10.62191629403916    4.26133451648831
C         0.41548562083445   11.39627654343589    5.37482937614959
C         2.26961376253659    9.85902515000756    4.37743758587068
C         2.98924715871189    9.59518652253187    5.66036312992996
H         0.19585787277149    8.60245004466588    0.81587542473686
H        -2.12565387582366    8.02376739289303    0.03292282270196
H        -2.61595938042450    7.70748441144284    1.69444220510598
H        -2.16993571832216    9.34780968938178    1.18817940522014
H        -1.36432916344203    6.08655117997982    4.15569666511380
H         5.48254875324220    6.56553916077284   -0.17198950564807
H         3.27650131547907    4.25832402974893    5.25165755577551
H         4.64486410154183    7.51398334490170   -2.29333479414787
H        -1.11378538850011    5.00663893940633    0.03045364037434
H        -3.04939764309146    4.32927590568048    4.50586902743697
H         0.89371044395904    3.61874592266769    0.98390374742862
H         1.58404808945449    1.67092120212150    2.30679053049001
H         3.91790662390047    5.99665732119793    1.62920144762370
H         2.59079360413865    6.21259077894084    3.91903372132290
H        -2.80154507005618    3.25861915190497    0.38036135405458
H         2.76907560591617    1.97830711565439    4.45009174175877
H         0.64826836218189    7.26942778238247   -0.83473028148212
H         2.22046728597703    7.85148630899790   -2.61045262118350
H        -3.77048949698142    2.90495385531644    2.62347162770015
H         4.78156661771894    9.88457186627722    2.46025341962877
H         4.52565949817054    8.51559460370093    3.54379798877988
H         4.03170350364091    8.41902661673513    1.84453911624419
H         2.91034816602643   11.28119465825594    0.55938886327847
H         2.65071635159953    9.56786763486853    0.25813271749671
H         1.30743462125845   10.71593484739405    0.10665915980209
H         0.24037577073808   12.88974986726335    2.39223569857189
H        -0.37159111901060   11.69234332625596    1.25370233572590
H        -1.09034607899795   11.83515564314777    2.86249327966305
H         0.97856209892847   12.31654513416274    5.53798014939218
H        -0.61228871973132   11.66445255126054    5.14259123202784
H         0.42407331700665   10.82537907172963    6.30063588984996
H         3.61195913886681   10.45701393461232    5.90607846278983
H         2.28992343995801    9.44092404344129    6.47901554655941
H         3.63462780823847    8.72219546513513    5.59024174576251

