45
CSD_code = JUSQIZ | q = 0 | S = 0 | Stoichiometry = C17H23BIrNS2 | MND = 7
B         4.86456520552160   12.24819609378931    9.60546970015793
C         4.38809980449815    8.20490280892749    8.10060575077792
H         3.89338756995101    8.28101762358257    9.07406638480269
C         3.67435232186112    9.01149999857688    7.02959792188603
C         4.63233840482294    9.46536615011803    6.08620653817886
C         5.92473552553993    9.42515970096192    6.74038775877925
C         5.71081696600379    8.95753194355849    8.06639645347895
C         6.79463086526456    8.64517811808008    9.05430294423166
H         7.27663413264359    7.69727048029278    8.80587150899211
H         6.37747823894162    8.56352146545700   10.05551203071899
H         7.55488399081709    9.42259331178893    9.06396746308132
C         4.53082820165519    6.71993511153292    7.74290803478731
H         5.02609137996639    6.61544329401204    6.77977368002015
H         3.55179312229043    6.25009654924539    7.68669177816346
H         5.11852921118371    6.20389688435786    8.49819476661363
C         2.22105470685501    8.79905170056211    6.74113648090228
H         1.81007707003310    9.63051862726386    6.17300603680986
H         1.66064810405258    8.70468289287606    7.66901275079945
H         2.07738181706582    7.88479115128301    6.16158730052825
C         4.38399705780812    9.80908631806327    4.65321994709903
H         4.46265645090419    8.90859406234843    4.04208947370640
H         5.10842266468924   10.53333234220949    4.28919331530850
H         3.38683294629125   10.22236191693280    4.52536264119335
C         7.24020737469676    9.71067191116940    6.08905009277754
H         7.98992568546355    9.97846235462114    6.82903011424317
H         7.15757871283911   10.51886911624528    5.36611375549804
H         7.58333930887955    8.81855319533232    5.56271918703990
C         3.17087065670162   13.60346936526911    8.35761881086890
C         2.99960965588361   15.57852867578935    9.81905057879358
C         2.78900892664806   16.74453486186035   10.53171540276658
H         2.06005357476239   17.46335754335861   10.19308241313935
C         3.53330629904131   16.95519926057177   11.67741708662741
H         3.38757165225870   17.85773450933934   12.25036455904997
C         4.46477191785308   16.01101602061780   12.09408759468888
H         5.03599457832091   16.18985639652134   12.99231112702941
C         4.67427187562675   14.84603954556318   11.38313076484526
H         5.39517650309902   14.11819800233514   11.71389807319739
C         3.93945235021919   14.61503430919312   10.22383529789753
Ir        4.61649070651132   10.80483536478105    7.72484113039859
N         4.00973454123616   13.52454620917931    9.38882440610096
S         3.00931934543744   12.46926517269388    7.13820967665820
S         2.20066408715606   15.06619766756786    8.35398420214756
H         5.52586495592779   12.02516395770340    8.49871005899292
H         5.67944539907173   12.42768344027914   10.44014730449386
H         4.11250613370531   11.33585457418743    9.88729770172788

