47
CSD_code = JUSQUJ | q = 0 | S = 0 | Stoichiometry = C12H24Cl2N6P2Pt | MND = 4
Pt        4.15519606338267    8.12393809515696    0.01776905976321
P         2.70916198438098    8.51475852795975   -1.69705742262243
P         3.00563724340479    6.80373722992140    1.49620495601981
Cl        5.58669217634986    9.43378698791077   -1.16285764212168
Cl        5.65682304519694    7.85459687833986    1.71173211078307
N         0.91451077387513    7.58589747215898   -3.57201016166920
N         0.32861431052202    9.67178351709424   -2.46535014683289
N         2.09597649896708    9.63146779838956   -4.13000636211440
N         0.78181363676224    5.37828006284138    2.33271514782623
N         2.94355442920062    4.55420196623231    3.07169474271419
N         2.01680821302303    6.57473205136263    4.04990892344648
C         1.85040612984347    7.10940513379435   -2.57521652721771
H         2.60369123169192    6.48056620005895   -3.06325078437668
H         1.31006311600614    6.49616387799864   -1.84598487897372
C         1.17872791242069    9.50483816942172   -1.30504899880806
H         0.60994309239970    9.00286721253153   -0.51386937747948
H         1.48115661702337   10.49168937490672   -0.93630817500980
C         3.20622607639165    9.45998049804597   -3.21647822777238
H         3.59036700730625   10.43940017379188   -2.91373484013074
H         4.01902271179982    8.92484598760027   -3.71905492225030
C        -0.13837347503176    8.39537479830245   -2.98072149101528
H        -0.88499671301235    8.59650301205631   -3.75510135726533
H        -0.60985855932794    7.83240754039491   -2.17037287830357
C         1.58127060906747    8.36138485357558   -4.60788377893395
H         0.85294729716251    8.56311790388508   -5.39955939690339
H         2.40381317842920    7.77253412155761   -5.02130835162536
C         1.01256450329673   10.38986829407280   -3.53133998074669
H         1.40777269244632   11.32773468193539   -3.13363348492364
H         0.27883722832993   10.61319758532696   -4.31209909460637
C         1.27638317753074    6.14431554529551    1.20678573493826
H         0.59050628332803    6.97962102989665    1.02249662330325
H         1.27880256388310    5.49796487545413    0.32123817040665
C         3.74770374995748    5.18965308234467    2.05017349608410
H         3.83192924723326    4.51757271149137    1.18798718845734
H         4.75161041108004    5.38269012138517    2.44122477706938
C         2.67844715626742    7.52314669754855    3.17964134736506
H         3.63436901536200    7.82152060904384    3.62216635771396
H         2.04929278953650    8.41520265359824    3.07443629744711
C         1.61644421778263    4.21470736223359    2.59265427357345
H         1.70426977283941    3.62606360408669    1.67535241080474
H         1.12106570623835    3.60929739453372    3.35808945655415
C         0.71417119091760    6.18467639040587    3.54218422016598
H         0.21022977725142    5.59312416959426    4.31286917651913
H         0.12331637411937    7.08241353623248    3.34015849567606
C         2.82421178024819    5.38363320179622    4.25984106300309
H         3.82217952763291    5.68284063006765    4.58791841893534
H         2.35019822901492    4.78619637766393    5.04500583259027

