45
CSD_code = JUSQEV | q = 0 | S = 0 | Stoichiometry = C17H23BNRhS2 | MND = 7
C         2.92919441591126    3.44717551951128    7.23417911842274
H         3.77241181030527    3.68557475269655    6.58848723590161
H         3.16711641649126    2.54900411884334    7.79841446468478
H         2.79325336807735    4.27116442793064    7.93668200176741
C         1.67464189085632    3.26370690696584    6.44134508639108
C         1.30314046613465    4.04431075143324    5.27633827724016
C         0.02304416124902    3.61457600407596    4.87046334684691
C        -0.65680561691944    2.92857379544465    6.05140648551865
H        -1.14523013771052    3.67622294489474    6.69828500203661
C         0.60241530810538    2.38350379370629    6.71589980451188
C         2.13042173270884    5.14831004832564    4.69649057010557
H         1.77551562594388    5.42898866445794    3.70829951697465
H         3.17843220054218    4.86119824610626    4.62240412113253
H         2.06522498908787    6.02139192582858    5.34770050231103
C        -0.78281204282955    4.20837422128700    3.75619243028561
H        -1.40406274918675    5.02131386048731    4.13905713644555
H        -1.43702049613790    3.45970519889029    3.31521304478478
H        -0.14118819439017    4.59983681650539    2.97083615868979
C        -1.68808345467385    1.86637588927272    5.67980969736756
H        -1.22246402298943    1.08786660050882    5.07258168180659
H        -2.50521963859116    2.31102054252341    5.11702141939030
H        -2.10121601236420    1.41225818529449    6.57747352543300
C         0.52291956702942    1.46988715914734    7.90108581709481
H         1.50328344657493    1.07331934245620    8.15432740850149
H        -0.14075651373241    0.63206543609243    7.69913860474516
H         0.13184928423302    2.01436079052997    8.76363006036556
C         2.76884665398470   -0.69404755256293    3.75401303873213
C         3.19244599240819   -2.26464751118958    1.90510638993604
C         3.51740406095595   -3.23499139301011    0.97504220845809
H         4.12631440184487   -4.07792105719123    1.26055126735923
C         3.04105234920589   -3.09133993135620   -0.31463697499561
H         3.28102917903111   -3.83564690194632   -1.05801718507012
C         2.25437261950497   -1.99725215081396   -0.65678777636564
H         1.88780742233504   -1.90226986841368   -1.66761090783895
C         1.92916102464991   -1.02852869883811    0.27177031542379
H         1.31632689218683   -0.18527502243491    0.00231946634434
C         2.40248780886028   -1.15039881038522    1.57463564373791
B         1.27616141600718    0.95749291718644    2.62464492481631
N         2.18514642037328   -0.29420281582807    2.62899847787395
S         2.72008607544728    0.10924964547037    5.21833925853010
S         3.64866786768835   -2.20411918347016    3.58918076247356
Rh        1.45123924999061    1.97451925644082    4.78503615010600
H         1.05767108501810    1.31635063655378    1.51981527281335
H         1.95257575865599    1.93086124041061    3.19493908776584
H         0.26169791809006    0.68348125816286    3.24129806114145

