61
CSD_code = JUSQAR | q = 0 | S = 0 | Stoichiometry = C24H27B2N2RhS5 | MND = 8
C         3.56582766949185    7.29859101135829    3.67876457315323
C         2.60794371491871    6.31183399984216    3.37563039365432
C         2.24647253365555    6.45920069197545    1.97543966249093
C         3.09595336450873    7.45409448812045    1.39830614832652
C         3.82839799293183    8.05433284482387    2.46251203276823
C         4.89329486382901    9.09270367403871    2.31403932739263
H         5.82316961065011    8.62122476161874    1.98951666744105
H         5.07489377601002    9.59716659592465    3.25987488977660
H         4.60469877731117    9.83622395773979    1.57361399465850
C         4.31188166801636    7.49006530315211    4.95999295764683
H         4.26316063584716    8.52853397465512    5.28593293775707
H         5.36070725868649    7.22678385131605    4.81456413901409
H         3.90007138652359    6.86760357931966    5.74961426856026
C         2.10017497141964    5.21935690215107    4.25883715924134
H         2.46110002211294    4.25796172983393    3.88985280872520
H         1.01086756231847    5.19681811464011    4.25929926169101
H         2.43771956994822    5.35201950715016    5.28315679748369
C         1.36634477752600    5.52473836902152    1.21047996761973
H         0.92186585832037    6.03310905993703    0.35806609076903
H         0.56999684339627    5.13998852315610    1.84283011257594
H         1.95587968432220    4.68082176274083    0.84602386036072
C         3.19832070045312    7.77410736996192   -0.05621687395016
H         3.22165700845847    6.85098771553539   -0.63359046037834
H         4.10144339702131    8.34370383774441   -0.25816379159536
H         2.34020612563591    8.36257313840621   -0.38417741057800
C        -1.28293645578173    9.10117482045897    4.12516245350445
C        -2.69688264192094   10.92025892101301    4.98844907338030
C        -3.47098336939150   11.87497859297058    5.62449840953412
H        -3.67184071532339   11.79244156294166    6.68045992657492
C        -3.97045115184212   12.91937030672356    4.87201086093928
H        -4.57512337216788   13.67761121254595    5.34446098288432
C        -3.70692548821223   12.99331343784442    3.50836688757650
H        -4.11714242984011   13.80701692066648    2.93083871052753
C        -2.92961782973676   12.04604306954398    2.87511778681124
H        -2.73493903455146   12.10985868109891    1.81865830945230
C        -2.39990096716500   10.99362073411069    3.61684751456146
C         1.01869160991014   11.51180614884829    4.15686543584751
C        -0.31343065811781   13.57349915126690    4.38623839818751
C        -1.04419267861895   14.70976454681244    4.68031753701998
H        -1.23696513710259   14.97995221042428    5.70600779950920
C        -1.51037661545016   15.47654359774179    3.63023609985557
H        -2.08091238647681   16.36942770520710    3.83320597272201
C        -1.24542254549278   15.10469240760697    2.31698406300427
H        -1.61339363778510   15.71621903397119    1.50726562043751
C        -0.51941342734376   13.96833107839294    2.02408466379599
H        -0.31948018522481   13.68920300170193    1.00388132421984
C        -0.04012980363140   13.17923549787535    3.06583734857807
B        -1.26805669480829    9.66412845674214    1.67591570200751
B         1.29913843875669   11.44179407627617    1.66026423047719
N        -1.60508426338171    9.96199296898475    3.16612418113539
N         0.71085671919973   12.02803502086179    2.97285219695117
S        -0.35316292541278    7.71226830600836    3.97483118706517
S        -1.96212727551040    9.50498737723303    5.68869574886271
S         1.93820351946414   10.15497359860472    4.50399729086788
S         0.38864801190054   12.44158484934127    5.50808743022693
S         0.63890552482591    9.65462763867129    1.37680178609839
Rh        1.71209519059355    8.32776253016322    2.94508268303022
H        -1.69964507808492   10.51568630491022    0.97967577138755
H        -1.64716288907001    8.56795749546487    1.42434734381926
H         2.47977813275555   11.35937310686883    1.77507718579621
H         0.94323273673376   12.07272086593238    0.72775256872661

