50
CSD_code = JUSXEA | q = 0 | S = 0 | Stoichiometry = C21H21CrNO6 | MND = 6
Cr       -0.24451983842044    2.67466452333733    4.09667190890515
N        -1.54429466971300    2.68597765619138    1.29962550795331
O        -2.20701003574485    2.29315445055933    6.35000705016434
O        -0.40169354039358    5.64327439679637    4.58254381626561
O         1.85476210373915    2.60788456650552    6.25400131407028
O         2.27661832605169    3.12690288518347    2.52004315923281
O         0.09378572693063   -0.31992874598174    3.96475259287130
O        -2.56677615740373    2.81295363999285   -0.74613183146532
C        -1.54245223736475    2.42710069101101    5.42405627015691
C        -0.35757524759458    4.51490887565136    4.36896712070850
C         1.04240764390832    2.61655416339343    5.43966965352198
C         1.24554545144841    2.94291218458390    2.99756934475097
C        -0.08432203309588    0.81405266225107    3.93411080157238
C        -1.64882908602958    2.93849158405070    2.61452291027661
C        -2.94161199221306    3.47700599280767    2.99719735778359
C        -4.10501236820528    2.99678132397202    2.53920443447957
C        -5.44029349482776    3.43023016977998    3.02699942850574
C        -0.59452809044005    1.71646176198189    0.78878440243793
C        -2.30302156833693    3.35621351617153    0.30055598560297
C        -1.74741974882295    5.58820804181495    1.29613358148562
C        -2.04528054053224    6.92216106097939    1.49590407716725
C        -3.21545897127288    7.48593391821957    0.99639527742244
C        -4.06643163674222    6.66225411148898    0.25953477580490
C        -3.77362068447113    5.33260202343517    0.04446512331035
C        -2.62060329122621    4.76983862188892    0.58585180356013
C        -3.58629957292527    8.94274817547090    1.21417531370427
C        -2.54769441063794    9.69855533355367    2.04699820705566
C        -4.93159035861128    9.00688600502550    1.95187608020901
C        -3.70601200992578    9.63644127589697   -0.15035872841563
H        -2.96139400050266    4.21050615164235    3.79565749241196
H        -4.11357971788957    2.20568944032582    1.79925517187655
H        -6.04132992996336    3.78165997726192    2.18804483758215
H        -5.35181051592671    4.22992348755112    3.75776466533825
H        -5.97129036868824    2.59262042551877    3.47945528894999
H        -0.54689280436944    0.85263095073787    1.45012026265753
H         0.40049837319720    2.15716223652453    0.69951189692887
H        -0.93354033644637    1.40392058700699   -0.19921892166221
H        -0.81965741804752    5.18787605524685    1.68427005792488
H        -1.34240076756996    7.51858503383887    2.05302800024623
H        -4.97626240401428    7.06309413668055   -0.16010876809402
H        -4.43791863642547    4.70734034370497   -0.53284035317218
H        -2.43901446904680    9.25629086945013    3.03440262667324
H        -2.86914378880767   10.72995121868127    2.17519587218636
H        -1.57992234010513    9.70979294677887    1.55134290091981
H        -5.72553705361846    8.54133831173949    1.37476488024940
H        -5.20674801908818   10.04322921132361    2.13397615000549
H        -4.85998462743266    8.49598988497023    2.90975623109335
H        -4.47991347090255    9.18200703133214   -0.76240496562631
H        -2.76310029539487    9.57200234722118   -0.68912618888170
H        -3.95372507609459   10.68656448648711   -0.01317387671532

