86
CSD_code = JUSYIF | q = 0 | S = 0 | Stoichiometry = C30H50P5Re | MND = 6
Re       -0.57227527454318   -4.06935828276889   -2.47765824419152
P         1.94279451093585   -4.11562924021597   -2.65848230694848
P        -0.43715059311393   -6.20871784702392   -1.43362550817490
P        -0.51525982405223   -1.95417053653627   -3.57802246337135
P        -0.89990964962332   -3.02857326694582   -0.38306918701216
P        -2.81031471974993   -4.41689258236225   -3.17298127096368
C         1.58699944188153   -4.93019381877881   -4.22861183862149
C         0.17828135456924   -5.01341833644898   -4.28849989123149
C        -0.33230800176517   -5.66042858836945   -5.41522712895148
C         0.49380332185592   -6.15911090078821   -6.40853561183434
C         1.87191294279884   -6.03674881766502   -6.32103622058840
C         2.43284447406940   -5.42093359971373   -5.21602302276643
C         3.14688230804282   -2.77832045247457   -3.06216874606635
C         3.67177295430386   -1.97461393568778   -2.05253917431318
C         4.57258615688437   -0.96780328282403   -2.34261207284767
C         4.95907886860931   -0.73433822970788   -3.65184359129095
C         4.42269750693674   -1.50672292982557   -4.66717733238005
C         3.52173467365967   -2.51597103761205   -4.37674985198492
C         3.19387302447366   -5.18884283552868   -1.82588217997208
C         3.63892715501433   -6.37537572058366   -2.39958375401723
C         4.57237658064834   -7.16729645765442   -1.75393429456040
C         5.07724630615531   -6.79209992169064   -0.52171244599089
C         4.62748155148077   -5.62343702720237    0.07004876458456
C         3.69085667247497   -4.83583135271534   -0.57168299479200
C         0.16410919143417   -7.61907280311290   -2.44585628260431
C         0.67789298940679   -6.46967706788055    0.01125552121368
C        -1.96099504181236   -6.97480580487993   -0.71262396743615
C         0.72679192714485   -0.66056958002587   -3.14667978336413
C        -0.19222380614370   -1.98945516964358   -5.38539317301568
C        -2.01089542595468   -0.85621744575898   -3.51265811296740
C        -1.65981114577112   -1.36160931474857   -0.20289699106031
C         0.65863432885625   -2.69547196734085    0.53286302782523
C        -1.86633160987078   -3.83664077149042    0.96218385771414
C        -4.25312295555953   -3.86930708569113   -2.15416571034145
C        -3.36825045563377   -6.15092008370795   -3.48470138430776
C        -3.34812024360098   -3.71401186361318   -4.79147867854380
H        -1.40154292373127   -5.79397997384123   -5.52641013471563
H         0.05914712028961   -6.65377593066245   -7.26906104160827
H         2.50613938738849   -6.42553831243193   -7.10675906622535
H         3.51036330827339   -5.32941343179639   -5.13557804863371
H         3.36403890786829   -2.12108944920017   -1.02834440958512
H         4.97178047954731   -0.35848781666132   -1.54378302360700
H         5.66516266891173    0.05099010301510   -3.87917460730234
H         4.70468068779079   -1.32271263258530   -5.69443542236496
H         3.09756928400654   -3.09429420035869   -5.18385620603258
H         3.25401615030336   -6.68966526076590   -3.35813737715759
H         4.90675925672319   -8.08370326432373   -2.21974010256165
H         5.80928585348912   -7.40886138931204   -0.02109279154191
H         5.00324078754231   -5.32737123127334    1.03953441275894
H         3.32942285277556   -3.94620983129602   -0.07830483680041
H         0.06555195313228   -8.55071295951478   -1.88821024364197
H        -0.40130760386959   -7.67402766178605   -3.37428129131170
H         1.20976589874400   -7.44667166551082   -2.69241333370396
H         0.64029577929992   -7.51884229885837    0.30693053385058
H         1.69834964541687   -6.21282067103076   -0.25888219072049
H         0.36689299154584   -5.84574005667364    0.84674357836684
H        -1.73525389117617   -7.42415723891571    0.25365618325607
H        -2.72375724300832   -6.21025417910410   -0.58785534115954
H        -2.33274683157582   -7.74485841796576   -1.38419521679548
H         1.69394859863319   -0.92827117749982   -3.56072765415321
H         0.41098356838406    0.29382466772955   -3.56914901640516
H         0.82187582475762   -0.56843589985912   -2.06606558710054
H         0.77585601471471   -2.46266534558991   -5.54215274909850
H        -0.94835306812240   -2.59115285371352   -5.88343391903654
H        -0.17934347320388   -0.97763636005286   -5.79133339510333
H        -1.81362500325575   -0.00513818031609   -2.86427476701641
H        -2.24874239792333   -0.49026818336596   -4.51106021596332
H        -2.85643206370728   -1.40718690762415   -3.11040219335345
H        -1.67394710161475   -1.07141577416198    0.84840920254807
H        -1.08689406310354   -0.63432480394433   -0.77263474168647
H        -2.67829603522082   -1.38726442201191   -0.58498528592666
H         1.18398458342101   -3.63650181197197    0.68532949571088
H         1.27608265566304   -2.04473287307227   -0.08628140909417
H         0.46417135598233   -2.21641135140954    1.49315985917217
H        -1.72820327783936   -3.29678334506388    1.89966757988422
H        -2.92036136523555   -3.81843478783302    0.68951012741137
H        -1.55624872102961   -4.87077549392379    1.08464422685100
H        -4.21966991115284   -2.79191824141854   -2.00715014525444
H        -5.18785020113321   -4.14368386881673   -2.64241869682723
H        -4.19643362988432   -4.35074178156172   -1.17985056203623
H        -4.02184284064218   -6.17939478141038   -4.35528735527606
H        -2.49536056703289   -6.77224814781931   -3.66472585385911
H        -3.90929520173919   -6.53031563072571   -2.62204863600357
H        -3.17539769103770   -2.64491911598832   -4.83236023180793
H        -2.76818379271182   -4.18857868008347   -5.57890444258434
H        -4.40808621010151   -3.92083911863418   -4.94216161158844

