34
CSD_code = JUTCOQ | q = 0 | S = 0 | Stoichiometry = C9H15O5ReS4 | MND = 6
Re        8.86800523319708   -0.42159753320281    9.68488571148264
S         7.30078678088950    0.90236849470999    8.53133792520775
S         8.05175018006094    0.90534160515888   11.93415899790054
S         9.16232881667596   -1.80778236441640    7.82709533641029
S        10.57313308601443   -2.06268561183668   11.03164084829970
O        10.19004833497368    0.56579848269294    9.52329599601070
O         7.54026961226816   -1.51110825707367   10.44639499169418
O         5.94683207518344   -2.39878283082634   11.72259660191824
O        13.43978421969669   -2.72934695190133   11.46505402845148
O        14.12630440901681   -0.68445971192469   12.07499935598559
C         7.10137736645610    2.28260394651022    9.71744877123079
H         8.04940614906040    2.82176463973369    9.74900015008403
H         6.33023167255342    2.92516330512773    9.29185903071840
C         6.68859030944339    1.81838600811785   11.10053465970018
H         5.82837641818055    1.15159916648738   11.04333504451929
H         6.45544697954002    2.67158569203335   11.73918355611646
C         7.15327731553809   -0.52526055180952   12.58130556711205
H         7.80872136042341   -0.99487106824529   13.31720682437091
H         6.23957944200008   -0.19892546297696   13.07513676741167
C         6.81678343624713   -1.59767568272243   11.49362974119665
C        10.06740202596561   -3.21108513658070    8.58399877781866
H         9.35601335532910   -3.81651219950554    9.14880764337716
H        10.44340717462751   -3.79488303511226    7.74347354284371
C        11.21624633631821   -2.75515472144010    9.45835167001054
H        11.78334003399112   -1.96535256373699    8.96461057072820
H        11.87039713484619   -3.58474924112436    9.72613416068422
C        11.88633047764615   -0.87852011989814   11.45591644784749
H        11.94543784160637   -0.12601955175061   10.66369901548465
H        11.58243348267972   -0.37999697560057   12.37615691676412
C        13.22000541134145   -1.56518868955507   11.65832930955154
C        15.44136096701850   -1.18780635541725   12.29161425514183
H        16.05252737485949   -0.32930289645914   12.55606837162938
H        15.81797836795858   -1.66548884469463   11.38532740976705
H        15.43578681829820   -1.92035498272466   13.10091200249047

