86
CSD_code = JUTHUD | q = 0 | S = 0 | Stoichiometry = C30H47BClN3O3Zn | MND = 4
Zn       -0.10099129431753    6.88931101508063   15.66307002427837
Cl       -1.18537852544036    5.62157396910250   17.03031746918946
B         1.31422189193308    8.57786726707607   13.82477484581064
C        -3.06363572292131    8.93404725552090   14.28731944556019
H        -4.00938985706343    9.42048933775667   14.51681676962647
H        -2.48967696483515    9.58414226155318   13.62915749574653
H        -2.50676537658534    8.80834814136516   15.21435208415823
C        -3.32058684470838    7.56763233998467   13.65200620585311
H        -4.03635170641488    7.68412410178281   12.83230931392050
C        -3.93592060084173    6.62329276856378   14.68258993116064
H        -3.22866808918133    6.41081823287696   15.48038841429008
H        -4.22460739115009    5.68231525850026   14.21938995163907
H        -4.82292187112141    7.07495796552160   15.12032894942731
C        -2.03316278323875    6.94693105532391   13.06363229359546
H        -2.16463265168772    5.85938593788820   13.05574255125907
C        -1.59534308764637    7.42574946734115   11.64713679622896
C        -1.18347769031434    6.22996964103477   10.78446996159385
H        -0.72587698095228    6.57805524131225    9.86146340383746
H        -2.05510243200173    5.62666156816076   10.54424606561890
H        -0.46159013912653    5.61440854318322   11.31722456430689
C        -2.55574421043535    8.31889700463337   10.87176744615113
H        -2.82256640143852    9.20421288509995   11.44052113319209
H        -3.45657097259079    7.76979450737081   10.61222914896628
H        -2.06690974492734    8.63892217468537    9.95437275746778
C        -0.04686585572223    7.99177763173919   13.18603280263650
C         2.29440309438732    8.64065422690876   18.12297626328672
H         2.92291041508437    8.53181452193443   19.00436921984758
H         2.82921617775004    9.23889711638614   17.38757150099436
H         2.12115228591751    7.65305583739619   17.69872707465995
C         0.95968829850015    9.27837506980964   18.50944419435146
H         1.15133241181504   10.17767932077456   19.10322899904774
C         0.15144313082417    8.30721993180655   19.36774781605044
H        -0.13585056179239    7.43235546449978   18.78945145597216
H        -0.75188195898295    8.78343563453146   19.74252986741221
H         0.74296469845650    7.97836816013677   20.21880706028122
C         0.13554172959155    9.70128354411981   17.27276535714211
H        -0.91845672180349    9.72696416917971   17.57014637746449
C         1.52474909561672   11.94447260391612   17.29305968268733
H         2.44895641707331   11.41538242291901   17.50191917036881
H         1.10812919180409   12.32549353417827   18.22136244689265
H         1.75547271427391   12.78379056851847   16.64124621132541
C         0.51487067358847   11.04917393571326   16.58636307960126
C        -0.74720634099804   11.84974468096890   16.25405908000930
H        -0.48904766903076   12.70463797972367   15.63382507256041
H        -1.21780899512356   12.20133257196787   17.16860783730166
H        -1.45283881210565   11.22744690060878   15.70750918746737
C         0.87022857172468    9.32329896266762   15.18679230396127
C         1.39678427916255    3.21077287427318   15.75169317383721
H         0.57236417230249    3.81366970775252   16.12407814805179
H         2.05766592534589    2.97841979127135   16.58395172082476
H         0.99295639246501    2.27801294763419   15.36538924320657
C         2.15300678354354    3.95079348255928   14.65018298187115
H         3.01428328236522    3.33947337956957   14.36288438422288
C         1.24705247681952    4.13883364570747   13.43361085092664
H         1.04697356422196    3.17668037116958   12.96671768683166
H         1.69946489000385    4.79701232456026   12.69365215895036
H         0.29879008821018    4.57333395109195   13.74622684256347
C         2.69521299478127    5.29418384061528   15.18669472299494
H         2.93287781627816    5.15367760098051   16.24703076029333
C         3.92992390016214    5.90718252520808   14.45697279720122
C         4.62767006676767    5.05636341327438   13.40386125742056
H         3.93404382172027    4.72162571211369   12.63910617050466
H         5.10102973613174    4.19458245615002   13.86623848147845
H         5.39355651876700    5.66180679418744   12.92484447803568
C         4.95165696985295    6.41317773682806   15.47936819337665
H         5.72322700832644    6.98990098795262   14.97494354411011
H         5.41217401534149    5.57424295545880   15.99467568182879
H         4.46334006856276    7.05410686245457   16.21105886919094
C         2.14982967043087    7.26825969778136   14.26729160370816
C         2.23046660189851    9.57002104552953   12.95023339442528
C         3.42712730136471   10.01697618963353   13.51246552897026
H         3.70513140825105    9.67533355480663   14.50060150105860
C         4.27158259197634   10.88480296025064   12.84670836709646
H         5.19238920717453   11.20939186555986   13.31287838988148
C         3.93908083394814   11.34160299397485   11.58286429566929
H         4.59515776593393   12.02094247347378   11.05643738754272
C         2.75652276905745   10.91933564222603   11.00451661101390
H         2.48306311387199   11.27144221624029   10.01876902275825
C         1.91879035604575   10.04834564590782   11.68180497893350
H         1.00194259133178    9.73540709597976   11.20760545068737
N        -0.86618429486099    7.27559496519786   13.87251551599011
N         0.29842988953345    8.74717863069240   16.18341182387097
N         1.70890892918461    6.36116439104111   15.06476259839258
O        -0.39926187040229    8.18896440865437   11.92876210382277
O         1.09339068129019   10.61542821781469   15.33491278337925
O         3.36812513899964    7.06649191329504   13.80290741086547

