91
CSD_code = JUTHIR | q = 0 | S = 0 | Stoichiometry = C33H47BMnN3O6 | MND = 6
Mn        3.45056526715098    6.84710010197506   19.67685653711904
B         5.55601059806509    8.03460509696575   17.50994059139827
C         6.26432929299720    2.49686965471902   19.94335051770858
H         5.60005075175182    1.63698022392058   19.89267947277629
H         6.52981986635492    2.65761067492141   20.98578188944228
H         7.16318873913492    2.25526521030501   19.38579639964333
C         5.55062998013516    3.72155817554159   19.37443418327745
H         4.55304466950531    3.74904923243764   19.83131057468688
C         5.34117971190030    3.60371067210840   17.86545579830322
H         6.27967630709183    3.55495774162320   17.31969486284482
H         4.77404865832199    4.45742124148045   17.49798270450141
H         4.77539352102089    2.69979641523080   17.64878878349028
C         6.18409879367075    5.06253494141249   19.81438678438160
H         6.12667147199265    5.08631656443302   20.90959295101403
C         7.62393099313363    5.46789388104355   19.38095806512639
C         8.31113005479540    6.18847436628860   20.54825968909019
H         9.23034567802480    6.65574498958777   20.20272214600681
H         8.54591399252064    5.48057683760572   21.33909868588619
H         7.66088498723486    6.96279118158669   20.95088009331259
C         8.57913343088125    4.42932475539632   18.81146928233460
H         8.15136793435223    3.90540948643512   17.96429171520416
H         8.86662150236278    3.71755359137565   19.57889364183211
H         9.46998589574522    4.94984861376030   18.46542826867596
C         6.10931705899277    6.82791543831655   18.43018359377831
C         6.01686245378924    9.56648400817595   21.80127626316353
H         6.58989710439462   10.48764927962154   21.73615370154715
H         6.31744379222809    8.91321567249722   20.98381624196664
H         6.27759518916612    9.08051980377629   22.73923930622221
C         4.51010570177906    9.81774783645250   21.75794711789067
H         4.02177500203001    8.89685368587774   22.10326624656376
C         4.09691139582837   10.92755978155252   22.72098928577851
H         4.30751232898888   10.61582741946692   23.74145133991318
H         3.03075425991932   11.12683016091973   22.64021581997941
H         4.64022433341300   11.84843532245145   22.53399046851321
C         3.93562392978018   10.00379862902432   20.33435779814356
H         2.84868888570295   10.09103238973674   20.45486136954215
C         4.42311843263280   11.13943005597109   19.39021824959197
C         3.22309254751159   11.68412739582586   18.60451031545536
H         3.56778203479472   12.34354876663635   17.81126960214013
H         2.56101614027470   12.23682127518373   19.26607279005755
H         2.66615743544491   10.86492583529581   18.15258089679213
C         5.22743247241253   12.30625037639220   19.94279023560546
H         6.11053161354315   11.97051716414381   20.47394641718518
H         4.61059609842604   12.91481052535050   20.59660791702409
H         5.55347891201686   12.91878036844504   19.10430799998526
C         5.00607953286757    9.13018878464317   18.55969726021543
C         0.49168271202906    8.38432209332961   17.21112115162263
H         1.38689097193023    8.90782935365674   17.54263266097247
H        -0.29630615238635    8.58152649666253   17.93448069389135
H         0.17351842303780    8.78600464375479   16.25386395080470
C         0.75477216555277    6.88070116811009   17.14356962298094
H         0.70381088647009    6.50139425113805   18.17332345793107
C        -0.32874083818344    6.15402367763326   16.35007911260709
H        -0.34802830535982    6.46771959686065   15.30991223216784
H        -1.30172737229613    6.36747146710203   16.78574691856301
H        -0.16957117085373    5.07857039642331   16.38286929361372
C         2.16874633882828    6.47915826746752   16.68128164634816
H         2.19142084188344    5.38010610200446   16.76247402327623
C         2.71182449211936    6.85494496043644   15.26653422429167
C         2.00291742454640    7.94708563302636   14.46976484014751
H         1.99287708694855    8.87922157112797   15.02577669531022
H         0.99030962856284    7.65984616834974   14.20836258827769
H         2.56543598503530    8.11293458928890   13.55299560619755
C         2.88415498364111    5.60671187600285   14.40230245559400
H         3.38536215573022    5.86648979945109   13.47311443793684
H         1.91198887494055    5.17660304778487   14.17595857566011
H         3.48778135853239    4.86412985748267   14.92067013212171
C         4.18756065126938    7.44357315698818   16.87741722819241
C         6.63212007439302    8.45101218701518   16.39607921120920
C         7.02776791418421    7.48888695104162   15.46630257462316
H         6.58811365515306    6.50117871206334   15.50897002380475
C         7.96707187645331    7.75918274353251   14.48925286488531
H         8.25074059701010    6.99024833798345   13.78275226035633
C         8.54826592796151    9.01348475807053   14.41468745975656
H         9.28403828618687    9.23089514361353   13.65261350540699
C         8.17788060868484    9.98362476932938   15.32782999537198
H         8.62694063428725   10.96704010559657   15.28157897546405
C         7.23522725735776    9.70136591232126   16.30249445899008
H         6.96278033363233   10.47513588704995   17.00378936410316
C         1.89152647980183    7.55400772119335   20.14270253652176
C         2.62722263232663    5.27594235991692   19.65629725521334
C         3.77288136431759    6.55976845908938   21.39811512881778
N         5.38557566029311    6.16183166187232   19.25780623301418
N         4.23957329145442    8.80570393985902   19.54161325920451
N         3.20856577176239    6.99438497860379   17.57947259957987
O         7.37854905561043    6.45531442824904   18.35483820358955
O         5.25700323219314   10.42815616274486   18.44780964579655
O         4.02513883043080    7.38507541613338   15.56611027864220
O         0.89620550779111    7.97616419548229   20.54867210545680
O         1.98790192962440    4.31429394918231   19.69569557564146
O         3.92380918303395    6.26346942006283   22.50406106092330

