86
CSD_code = JUTJAL | q = 0 | S = 0 | Stoichiometry = C30H48BN3O3Zn | MND = 4
Zn        5.33201010154291    7.67713917506800   19.14060922776737
B         4.10013374836175    5.24626910685685   17.92495955060233
C         8.46055919062676    6.00304267345587   17.69634652995494
H         7.97175903128513    6.24423995907262   18.63881045979248
H         9.51819886705012    5.83020719227137   17.88616409505815
H         8.02295634420190    5.08485825983813   17.30945250823618
C         8.28486146543051    7.16357625701363   16.71819234079192
H         8.91215142571133    6.98945323782609   15.83824189342960
C         8.74350545392241    8.46406967816512   17.37430078963201
H         8.09128000091357    8.71091443450286   18.20864612739220
H         8.72229857064207    9.28442432568474   16.66017028000426
H         9.76076031721418    8.35835005584133   17.74445614617351
C         6.82383929758745    7.29886867630505   16.23550836602572
H         6.67631082305291    8.33719881399544   15.91655720847879
C         6.36430339262202    6.33800308039637   15.09536446953626
C         7.42852625185135    5.49947853707242   14.39844678734517
H         7.99268516204998    4.90185736843346   15.10756175677738
H         8.10844013209624    6.13757616601060   13.84002580402254
H         6.93356494885012    4.82311215822359   13.70525114591019
C         5.54847479711134    7.10873972952946   14.05211192989981
H         5.09018289455833    6.41117534548683   13.35500875936715
H         6.19079125101703    7.79283374650540   13.50312010925407
H         4.75908977886607    7.67720888043408   14.54031942243714
C         5.19956633539459    5.95317964462744   16.97991442023570
C         0.43111586067605    6.87667466194354   20.08036897563774
H        -0.22829399771621    6.02064096845773   19.95896989599248
H        -0.13096326705518    7.70233477892825   20.50977796908487
H         1.23296207351491    6.59962520067400   20.76156459172585
C         1.01020398214475    7.28291184367499   18.72127665861713
C        -0.12477335630853    7.61045352666378   17.75861596998013
H         0.24809352843608    7.85344328793594   16.76886310550272
H        -0.71423386072485    8.44120476204776   18.13738950101677
H        -0.76551865715278    6.73596274440883   17.67215317331502
C         2.13309906317290    8.34849350789496   18.91066426998578
H         2.08479717323083    8.75370660853377   19.92763905954041
C         2.14175527171741    9.54261663027668   17.93031130573522
H         1.10538768932705    9.86138674143455   17.78013535134651
C         2.75436986666212    9.17168944657080   16.57991829430108
H         3.82482041234219    9.01201213821519   16.69577586396304
H         2.59707853647662    9.97682751102523   15.86478392815446
H         2.31715830559613    8.26068883924454   16.17674380994492
C         2.91482504435125   10.70960755775149   18.54072588696311
H         2.43913618299175   11.05007633574298   19.45779917770800
H         2.94957638959922   11.54287549770869   17.84263747524839
H         3.93253008246701   10.40160068387746   18.77029498797154
C         3.03739852608295    6.38979804963824   18.32724962542020
C         7.32851417725883    3.19707101228779   20.42784899583257
H         7.24393203370502    2.18123716524222   20.04881720355464
H         8.01947439067633    3.20778665517097   21.26712586058750
H         7.72256389282158    3.82930482342069   19.63497871041943
C         5.95316699855893    3.70482882276717   20.87201673318088
C         5.38179413472293    2.77551757411925   21.93626257586730
H         4.38085323441035    3.07468599602908   22.23106302720957
H         6.02730210435451    2.75945915828248   22.81025698800391
H         5.32757445313640    1.76995511640724   21.52502921255088
C         6.01835815048779    5.22811439384740   21.19525589198557
H         7.06646856210301    5.53953319666168   21.27015101547388
C         5.29771209953528    5.70268996956218   22.47709184526347
H         5.46880906453781    4.95197043440904   23.25496616952374
C         3.79398436565487    5.86842396730945   22.26141522325464
H         3.61263451758321    6.72409357836563   21.61347161413173
H         3.29663094457338    6.04046238125158   23.21401995586257
H         3.35415527362490    4.98932754697033   21.79468445321130
C         5.89656758909659    7.02318916387498   22.95612084518498
H         6.94793527929182    6.90172305694623   23.20750909977104
H         5.37074625283416    7.37315965829642   23.84155759618951
H         5.80959550234663    7.77626480290230   22.17643075592425
C         4.90115252046549    4.90742936030570   19.28118251571193
C         3.34301175661492    4.06673387381155   17.13489337741955
C         2.68647871556848    4.39498027402525   15.94786380257037
H         2.71951035707147    5.41660147050391   15.59275443888057
C         1.99395720947088    3.45588473103212   15.20779989001612
H         1.49593750155360    3.74631200913913   14.29175685718335
C         1.93396549960651    2.14142078668691   15.63859983824406
H         1.39216762731624    1.40171494315758   15.06496099193153
C         2.57308037872374    1.78888639927180   16.81250620227819
H         2.53212915868279    0.76541618403961   17.16173489711715
C         3.26405248018677    2.74013937007647   17.54532509519425
H         3.75374554620759    2.43789986919626   18.45794913866581
N         5.87841267932205    6.99226024770582   17.30152273454978
N         5.42687680110584    5.82640398571259   20.00620816098186
N         3.34510975057862    7.55403370890538   18.76620414342079
O         5.45892246046606    5.45012031145287   15.77969055540548
O         5.08377510831840    3.66766365254480   19.72159703813438
O         1.73748872651794    6.15142440767113   18.20263384176226
H         5.95367826911281    8.87736811538356   19.76804370226177

