41
CSD_code = JUTKOA | q = 0 | S = 0 | Stoichiometry = C17H19MoNO2S | MND = 9
Mo        6.24006881032455    3.94983627901278    3.39409531557057
S         6.98561751968748    2.16516088084494    1.67690193681814
O         8.32337716354084    5.22378352931375    5.26593214132918
O         8.23503908205343    5.73379102059805    1.86963104622402
N         7.01069161732996    2.14956679151395    4.18895736576928
C         7.54195517467440    4.72221328765038    4.58347592537042
C         7.49450349266017    5.04280765308850    2.41359771653616
C         7.21263300968739    1.32417315210736    3.14553599059897
C         7.55105721438426   -0.02099684466794    3.31823659705403
H         7.70132595510856   -0.64256315781602    2.45022911327052
C         7.68448389155768   -0.49798672620285    4.60218254391757
H         7.94830817168626   -1.52943068599144    4.77892074076054
C         7.47809950878516    0.36925889208105    5.67989037156084
H         7.58322778629759    0.02211681756784    6.69480286517638
C         7.14465373179119    1.68207314119979    5.42794016758715
H         6.99068509649085    2.39489579868949    6.22859697029036
C         4.49845920541523    5.30072966977841    3.95404073713058
C         4.34059399595013    4.99764709430209    2.56384604217690
C         4.12561307827738    3.60047436012132    2.44129429932626
C         4.17433806512805    3.02223502868255    3.74146743709477
C         4.37907578261732    4.06853145361309    4.68676228711529
C         4.46349844640305    6.67300594129712    4.55877908922914
H         4.95222423701877    7.39880219512609    3.91074817308480
H         4.96632593369096    6.68647884648303    5.52421254978303
H         3.42752163497015    6.98739359510058    4.70702889884319
C         4.18546267483821    6.00259190285387    1.46257668481431
H         3.13214770933110    6.27078327898352    1.35112770337843
H         4.53659060184643    5.60156878090074    0.51369708842129
H         4.74852899396355    6.90878314082179    1.67792830269609
C         3.73267899606001    2.88997286288256    1.18456712243059
H         4.19898194733755    3.34582679352825    0.31305580306189
H         2.64829046255690    2.94273313063928    1.05994497537874
H         4.02261038589789    1.84088261150214    1.21153249876398
C         3.81176017603674    1.60052893590112    4.05924654535671
H         4.21275008754877    1.29288851125111    5.02506424881814
H         4.19393796412313    0.91529874665384    3.30100442028359
H         2.72508303335416    1.49193626804753    4.09301672998645
C         4.21638283124792    3.96887367637975    6.17354679529942
H         3.19594732436353    4.24165943724244    6.45321253113302
H         4.89872602733700    4.64307895024394    6.68924018904880
H         4.40214317862242    2.95599495868247    6.52603203950989

