55
CSD_code = JUTKEO | q = 0 | S = 0 | Stoichiometry = C12H36HgP2Si4 | MND = 2
Hg       18.29273835035513   16.65340563798307   13.49131744517008
P        18.60413168552934   17.90449685371576   11.19384268259939
P        18.85940273702162   14.67055566779148   15.12983047282682
Si       16.48059632906008   18.31115586545421   10.53334692745664
Si       19.36406015231917   19.90063482881214   11.93259259020994
Si       19.42142009111395   15.73867563809896   17.04239500848982
Si       16.78391460568860   13.86507147797476   15.51697614760876
C        15.94469521517501   16.73675513588571    9.59197824532876
C        16.40934259304790   19.81273201572816    9.35383929727979
C        15.23396828455992   18.59855593068807   11.96651593692647
C        20.85623690395761   19.49849420912107   13.06191623583708
C        19.96693072268445   20.91822895516048   10.43340342791747
C        18.12514631594094   20.95636445765009   12.94889495399843
C        19.13843706227683   14.60752994838677   18.55608002446094
C        18.50271288915560   17.40009078418761   17.33511197171773
C        21.28660765037728   16.11942962654883   16.87354368639750
C        16.92706293851729   12.21826762107050   16.47319535817798
C        15.58566257468925   15.03204133635766   16.45803420614044
C        16.03624144720184   13.52284522546813   13.78843488713868
H        16.02519478561935   15.85883532430761   10.22748151413979
H        16.58018450762042   16.57132955350471    8.72788123239815
H        14.91826799264178   16.80557041725239    9.24456010196388
H        16.57217747624653   20.74630504310973    9.88260015715350
H        15.44218051862900   19.87259977843815    8.86464472016998
H        17.16764442558972   19.73058502050067    8.58219714236450
H        15.45083271623891   19.51358373059515   12.50840140653853
H        15.26548162200237   17.77706940413515   12.68135409076005
H        14.21680206619255   18.66896877127035   11.59280061336663
H        21.59053426245952   18.90653889933691   12.52481275603389
H        20.54795484815877   18.92244306546288   13.93439763884497
H        21.34743880839757   20.39906578982426   13.41673120084977
H        20.64814278416793   20.33410375737246    9.82299293855173
H        20.48981697196951   21.81380705154783   10.75433366191853
H        19.13970975544654   21.22426094541440    9.80197149902993
H        17.72010988408532   20.39166568425174   13.78512590022937
H        17.29179491514882   21.28623517350439   12.33685056998634
H        18.60979766606110   21.84094748273072   13.35074472626759
H        19.54166584248319   13.61671906356974   18.37489603283382
H        18.08321663519580   14.50083477376106   18.78527449145322
H        19.62982428098214   15.01056586121302   19.43588549300895
H        17.43997209083776   17.24839068224130   17.49414116732226
H        18.61686205050786   18.06312921379815   16.47835694111791
H        18.89694692838729   17.91736222366861   18.20447656567834
H        21.85878253658754   15.20348843187159   16.76647775913525
H        21.66693123335899   16.65269959913581   17.73938038091612
H        21.47982190941870   16.72784033969685   15.99432287230325
H        17.63766300921229   11.55509786531927   15.99069985002800
H        15.96982193952388   11.70803366007305   16.51609699111010
H        17.26458479819396   12.37736442310282   17.49163102879143
H        15.53977106553480   16.01200471845285   15.98820942620755
H        15.89854765817455   15.17191577016239   17.48809868982256
H        14.57890155824576   14.62430975630294   16.47170515909086
H        16.66781639378787   12.83891779180951   13.23028408004474
H        15.95305125691043   14.43968761785287   13.20469153094920
H        15.04624425730974   13.08309209938550   13.85714016390698

