70
CSD_code = JUTKAM | q = 0 | S = 0 | Stoichiometry = C31H33NO3SiW | MND = 9
W         4.56579294216689   13.50880813202735   15.39251274315543
Si        3.83547042764815   12.98266389491737   13.08088310034099
O         4.37197809438750   16.57316254680106   15.92733478214216
O         1.67613498847693   14.67057191408393   15.52304049380833
O         5.40353116722855   12.79946422771887   12.32795130831429
N         6.24760160061942   14.09406125415395   14.00458167398484
C         4.48105765295667   15.44209724574962   15.68924437950956
C         2.74030489304873   14.21558837773305   15.44539766832660
C         6.37863228447825   13.51497050003468   12.79844928886972
C         7.55534695618523   13.66910739230105   12.04704323639249
H         7.61343023844526   13.17746007529055   11.08978100941027
C         8.57889709722039   14.44551170197427   12.53685744843096
H         9.48614909010720   14.57916474101630   11.96794088778292
C         8.41879049965631   15.06279693284048   13.77520237197947
H         9.18977121768527   15.69088353454043   14.19022428021167
C         7.24607873887761   14.85307823544859   14.46518521708860
H         7.07702166013578   15.31797976215169   15.42952333267259
C         3.01594048498388   11.35098418460632   12.58326640966622
C         1.72219207796167   11.10350748948118   13.02905278410375
H         1.22655447673333   11.85373684632083   13.62812043857726
C         1.06728775457064    9.92783965409772   12.71323504330808
H         0.06052265450061    9.76004931845700   13.07085675347122
C         1.68938804935846    8.95637698486856   11.93855293265194
C         2.98048378957019    9.20067902634539   11.48518930620171
H         3.47717354279393    8.45778967252258   10.87554367557685
C         3.63056846519986   10.37828886017248   11.80262885011191
H         4.63109253684833   10.55586269895922   11.43811155908623
C         0.99855786533629    7.66779709209349   11.60785253923633
H         1.15331904237068    7.40508797928081   10.56297212936005
H        -0.06947031334216    7.73870191223070   11.79875207339112
H         1.40167757197743    6.85848542914320   12.21792767526303
C         3.05719141441681   14.33376609521293   11.96634343248377
C         2.10136255818579   14.05521448143391   10.99486252418309
H         1.77931691159637   13.03398025078801   10.85043455332573
C         1.55885971154889   15.06020302980233   10.21685931764873
H         0.81644414241272   14.82018393267565    9.46785004139436
C         1.95445121124126   16.38208376932437   10.38406480858150
C         2.90432047529494   16.66830083390543   11.35599067327262
H         3.22061963814809   17.69113554487274   11.50803189622005
C         3.44187736190763   15.66129948911632   12.13557508436162
H         4.17132054428296   15.90663533435643   12.90074915371104
C         1.35238448083562   17.46489375117245    9.54020246355736
H         1.41603932935104   17.20725637200045    8.48394368452895
H         1.85986119165633   18.41272412366288    9.70132090023325
H         0.29869035798268   17.59170642231213    9.78824936503529
C         4.45213437078138   12.57281361445755   17.48374723096448
C         4.08701923687928   11.56938923417657   16.51409173303539
C         5.23792979389157   11.29259088871793   15.71990236997729
C         6.30980355162858   12.10364833999425   16.20654109679713
C         5.83486509766503   12.87987546326637   17.29389627871771
C         3.62661864371896   12.98881093357356   18.66577737711353
H         3.79376988101122   12.30275219562217   19.49952705732694
H         2.56514466602710   12.97961580977011   18.42404524652105
H         3.89171940032032   13.99233974230265   18.99403524673794
C         2.80818699111434   10.78564235571823   16.51227341783324
H         2.57233747389308   10.42215581299303   15.51338502245583
H         1.97553684739852   11.39735801142940   16.85578273363402
H         2.89736436763535    9.92531113606376   17.17963730723107
C         5.41209687489173   10.13235532632618   14.78484834627085
H         6.03540876912860   10.39524763483087   13.93081184403697
H         4.45400493685943    9.78525298300082   14.40563178990599
H         5.89408300253693    9.30347482117615   15.30995084871460
C         7.74119215014823   11.94412037347455   15.78665786791565
H         8.33465447770650   12.82751560640316   16.02003952272512
H         7.82546779418196   11.74890273652076   14.71670335041664
H         8.18172092703154   11.09445959229700   16.31415403237737
C         6.65914968038678   13.73499031538088   18.20962528929731
H         6.91619820961080   13.17415491837477   19.11121389299096
H         6.11219467049772   14.62615568414072   18.51451013594594
H         7.58738130802582   14.04842542199399   17.73471767008887

