70
CSD_code = JUTKIU | q = 0 | S = 0 | Stoichiometry = C31H33NO2SSiW | MND = 9
W        10.26219514835102    3.22462392007909    6.34032578432974
S         8.55763266209902    5.15976833159684    6.63483563176849
Si        9.17824196214751    3.40778433254370    4.12707403205155
O        12.74432937121806    3.08672690781164    4.46082551898639
O        12.33423937492415    5.53473943972280    6.60877892074498
N         7.59947120743854    4.42310602258385    4.27572430070815
C        11.79639719549868    3.12216284434711    5.12889159177707
C        11.52593454506272    4.71413484387136    6.49449226605894
C         7.40862836284453    5.15241573981984    5.39098447463618
C         6.24840164782182    5.94700176742832    5.51544558567472
H         6.12235507363473    6.51313105624276    6.42402133607388
C         5.33385818786716    5.98676912896291    4.50088381176367
H         4.44187652607258    6.58841115099066    4.58513845608795
C         5.57666379413144    5.23977658408171    3.33622344381850
H         4.88809471178039    5.26146045784700    2.50839817083798
C         6.71632992734814    4.48803072077019    3.27157134504932
H         6.97027707121195    3.90665381664460    2.39959919821288
C         9.90723061967349    4.46188213950233    2.69712594603051
C        10.62768433767000    5.61208089507186    3.01555888620756
H        10.75347520503490    5.88269040596127    4.05732953629946
C        11.18858132216335    6.40028812195133    2.03102785093103
H        11.74627164350270    7.28525829387202    2.30345048982236
C        11.05459878612049    6.06406700780374    0.68790662256777
C        10.34066202273546    4.91920864991102    0.36375275387727
H        10.22859984993687    4.63581789246502   -0.67406951829011
C         9.77695773029114    4.13256247782029    1.35251207616893
H         9.23608172211232    3.23910539293192    1.07237530097246
C        11.66203629804210    6.92865406107379   -0.37454773674884
H        11.08838007266650    7.84985249014548   -0.48164966900170
H        11.67263486276274    6.41856496193268   -1.33473395378699
H        12.68160299050366    7.20144809074383   -0.10906639727594
C         8.50271370532989    1.82779467739075    3.30929181649156
C         7.19443442291335    1.36776941913624    3.40372019871606
H         6.45184266925943    1.96243835888091    3.91967628667483
C         6.81303825747298    0.15969737000702    2.84548263744340
H         5.78656004927066   -0.17018855822501    2.93468520951512
C         7.73242620610271   -0.63379249376791    2.17460660838780
C         9.04642846406975   -0.18458309463893    2.08281555562672
H         9.77765974455788   -0.79072409695325    1.56620445455359
C         9.42144842266917    1.01817971019611    2.64566841626692
H        10.44661622755950    1.35076582288811    2.57473958368562
C         7.33553564221304   -1.94272082646628    1.56319539806537
H         7.51942360824728   -1.93012991742735    0.48940667385931
H         6.28176695816059   -2.15020513140740    1.73253567820350
H         7.92368758114259   -2.75447728619715    1.98996121199924
C        10.98168027886473    1.34278569494362    7.47813213546228
C        10.69233272644824    2.31746751288431    8.47921157469550
C         9.31639805113561    2.63033871227993    8.39873224003760
C         8.72827951206441    1.83001001467308    7.35650341163492
C         9.74904182431086    1.00484238517246    6.81549823756747
C        12.26767205186207    0.58492237020763    7.33769450915955
H        12.26503201548465   -0.28286374017072    8.00133620098768
H        13.12072654801704    1.20910245259010    7.59862669931330
H        12.40247011417378    0.23232412545636    6.31614532083376
C        11.64649205015873    2.82004789605502    9.51831742731363
H        11.37031028019911    3.81863470189930    9.85194634034000
H        12.66365463599517    2.85847070498203    9.13260122662912
H        11.63658201054744    2.15644151725444   10.38615229489549
C         8.56379005207751    3.46525203640578    9.38935029076337
H         7.57995531929494    3.73602562512775    9.01180634808451
H         9.10111564430655    4.38511045662769    9.62014158364678
H         8.43326281906752    2.90557026638952   10.31855131381465
C         7.25132985836354    1.69057651542928    7.12459884018518
H         6.79816579594794    1.10769329956647    7.93011687864784
H         7.05207836388574    1.18278000573384    6.18297097970837
H         6.75948977345597    2.66458437296892    7.09887550737506
C         9.58112513286013   -0.16913458746375    5.89824083940495
H        10.37801076531659   -0.20898792554472    5.15635368221163
H         8.63304846219675   -0.13031291662507    5.36757485422281
H         9.61154972231423   -1.09408339677683    6.47894547723162

