79
CSD_code = JUTKUE | q = 0 | S = 0 | Stoichiometry = C24H37F12O5Re | MND = 6
Re        1.87390543728274    0.26027295199268    3.82146575620325
F         2.04710515833577    1.13410576030281   -0.56184421686549
F         3.49878269243570    2.66624859169425   -0.94240117474047
F         4.13244639760247    0.70061925238983   -0.34666390755425
F         5.52093741811569    2.04723358068726    1.42343568842842
F         4.59712728382160    3.97096055383069    1.20006211797175
F         4.49685697139302    2.94259055213433    3.07931165218491
F         2.25072422251319   -0.46047504744601    7.37217903721895
F         2.18584230466325   -2.60014346318736    7.47835587280242
F         0.79380761461421   -1.42752169852467    8.61341372020000
F        -0.86374778022532   -3.20884387556654    7.29067388984363
F        -1.19175095951944   -2.89391557886871    5.19334162702406
F         0.58866761625479   -3.87923361392776    5.85486716817209
O        -0.64922210699713    1.90035472680467    3.55028827387167
O         1.17934765161473   -1.37631918271012    5.06907624909813
O         1.64232901613007   -1.56284733802174    2.30538390178517
O         2.98782081737612    0.91625176073053    2.08737367548678
O         3.92688792767049   -0.96752515708441    4.05959724701565
C         2.06743948265953    1.67240646292878    5.00363579674162
C         2.27501880997123    2.77913846039596    5.92313028685429
C         2.12852102741957    4.11836353336897    5.18006218740754
C         1.25415135480336    2.74153103570513    7.07278741583562
C         3.70076875506353    2.64542562086010    6.48853256889327
C         0.08660370198450    0.87044190630017    3.21831642591487
C        -1.95191528222295    2.05086564235292    2.96894692238434
C        -2.98438563435082    1.21219711954278    3.70954823883915
C         0.45260790464614   -1.49640431023739    6.20265874683874
C         1.41552888376542   -1.50614842034222    7.42549011246499
C        -0.24733305613300   -2.87885406612478    6.14741317719246
C        -0.62387581858410   -0.42295060325456    6.42410250571598
C         3.10415199570172    2.05346499028305    1.36534194186706
C         3.21065660424032    1.64174516276391   -0.12634825648615
C         4.43592984635023    2.75872705771920    1.75415037093614
C         1.95682681635200    3.06630588911030    1.50058732162278
C         5.19983936717053   -0.35891468218113    3.90390346677803
C         6.24391415852775   -1.48548610105707    4.03474816443245
C         5.41633107483860   -2.70013486302035    4.47950491530807
C         4.11437513465537   -2.05176148228677    4.94812234329611
C         0.88157905650928   -2.74040231969344    2.53972410665118
C         1.14972427976147   -3.67248352049021    1.36239349313585
C         2.59483681162177   -3.31211395514081    1.03081096659321
C         2.58340624188905   -1.80541414260446    1.26578069835669
H         2.24130181959536    4.93724813293556    5.88614456456339
H         2.89229518994588    4.20912313915541    4.41691866094999
H         1.14709922685698    4.17794331043668    4.71927853758775
H         1.43459873363807    3.57990999705657    7.74112262508791
H         0.24630984977105    2.81828172621107    6.67614320783794
H         1.35273240816115    1.82121360833289    7.63646465448505
H         3.80242908626318    1.69443430580378    7.00151762097209
H         4.42086566839862    2.69490004353769    5.67821800496965
H         3.89364396961017    3.45389913128509    7.18914132999860
H        -0.38315540287405    0.23542002001934    2.44398541913072
H        -2.18716625603707    3.11360347321913    3.05645909403586
H        -1.92166011744946    1.77344253154267    1.90926086388424
H        -3.00717572471260    1.49196011850659    4.75869675048407
H        -3.96786351903828    1.37327044178055    3.27779913180241
H        -2.73766882011322    0.15570402957172    3.63540598970626
H        -0.15108867776910    0.54674265059020    6.28494258256754
H        -1.39743321134863   -0.54197277810966    5.67135406053229
H        -1.06323248415646   -0.50879825843675    7.41456588049406
H         1.79977736283859    3.25094503631396    2.56078489392754
H         2.18960456048527    3.98795198211979    0.97285151033868
H         1.05196804799178    2.62897669691556    1.08771828728500
H         5.21494216530003    0.12794817234548    2.92888316586808
H         5.34023116604134    0.40176834515920    4.68290262026321
H         6.75322293002111   -1.66905829988847    3.09026961458943
H         6.99345099204613   -1.22351204752925    4.77971198315344
H         5.22435197092598   -3.36518315585282    3.63613696899073
H         5.89306644603078   -3.27345516606895    5.27072733328148
H         4.21932382644039   -1.68156518278626    5.97736800122086
H         3.24318390278813   -2.70449549929801    4.89320283920792
H         1.20859880741398   -3.20508620511297    3.47756498731543
H        -0.17222925649035   -2.46478487130105    2.64589686401705
H         1.01169980854684   -4.71781107780144    1.62931791637828
H         0.49613264662199   -3.43021078131958    0.52231719386096
H         3.27521316797266   -3.80601775623590    1.72747372884035
H         2.88525958469843   -3.56590349139774    0.01387161149221
H         2.24906126628554   -1.27812693464416    0.36184859993196
H         3.55453966555561   -1.40256257721794    1.55777240521834

