71
CSD_code = JUTKEQ | q = 0 | S = 0 | Stoichiometry = C31H34MoN2O2Si | MND = 9
Mo        1.69075515270257    9.10400858608597    4.25137445396865
Si        0.01138708190101    7.30582491039178    4.07110065641082
O         3.40438343413262    6.57466076004657    4.63721132277533
O         3.85417819797999    8.73695335482424    2.09316125290706
N         0.39325625333352    9.67737696172568    2.55995758416879
N        -1.26631433936809    8.24169143550841    3.22878001507379
H        -2.18614486597145    7.87443529531782    3.03906190825667
C         2.74102175988114    7.51168437453321    4.50907298583705
C         3.00121540532141    8.87555445906618    2.86146385422369
C        -0.86997186450101    9.22955456359647    2.42289656946605
C        -1.73625684813651    9.80129064673367    1.46540597089929
H        -2.74609859489896    9.42677523361905    1.39248720003301
C        -1.28464725986430   10.79987401899326    0.64244978538770
H        -1.93528564313516   11.24051271963751   -0.09760124198864
C         0.03650596738817   11.22840916242430    0.77484058807754
H         0.44046862495980   11.99877001547583    0.13930843318547
C         0.81900541281837   10.64113581670689    1.74212443947054
H         1.85080496243191   10.94340883036753    1.87119259230705
C         0.24570641344445    5.81746041086247    2.89025984751901
C         0.86372256515522    6.02740780590140    1.65964815691718
H         1.19357711578411    7.02795577581245    1.39848646227491
C         1.07340576748945    4.98822014766778    0.77425791737755
H         1.55771175013984    5.17861659376916   -0.17376465436990
C         0.67686871938269    3.69443014510723    1.09196052190838
C         0.06378112245098    3.47614371521846    2.31860638708902
H        -0.24734070963434    2.47548083550982    2.58684714590003
C        -0.14760557493997    4.52046209280114    3.20027080772281
H        -0.62096709317762    4.32568521828490    4.15224257732728
C         0.88734928702124    2.56738962431949    0.12638738440625
H         1.04538542443822    1.62934982469436    0.65387343313496
H         1.74407417095099    2.76144862893293   -0.51475715634800
H         0.00872254025671    2.45164853952163   -0.50996792178394
C        -0.85854489267576    6.59230815371886    5.59304260299586
C        -2.18322021137993    6.83173983779600    5.93643724100242
H        -2.79222420724069    7.45952675346670    5.30176873998679
C        -2.74025453806107    6.28965847956127    7.08143699990281
H        -3.77445334789391    6.49465481183573    7.32436020358058
C        -1.98655092139827    5.48596109186300    7.92537769135487
C        -0.65960771986358    5.23950579286321    7.58809436694943
H        -0.05584103780215    4.61547453485783    8.23273794102250
C        -0.10995378706806    5.78525706348566    6.44477004847218
H         0.92264692011663    5.58666464240984    6.19687802161343
C        -2.58340234331312    4.88116812283509    9.16002656558092
H        -2.80233613986553    3.82626753026886    8.99128088013252
H        -3.51000666652495    5.38182015950594    9.43121978880585
H        -1.88895251316743    4.94674517238383    9.99565585667409
C         2.76034751217686   10.23857795041500    5.90232048918789
C         2.29591989809165   11.24967961046572    5.00705444192667
C         0.88220638324210   11.20295914294391    4.99600747486169
C         0.44968341605235   10.17674017252192    5.89073040428114
C         1.60913892493899    9.59176942108267    6.47043564217013
C         4.16777240332810   10.11904108450932    6.40731157926590
H         4.33220658575347   10.82468287498676    7.22579113409722
H         4.88586490661875   10.33911652764960    5.61903563442772
H         4.36703595280061    9.11435606726704    6.77689728065472
C         3.16175948366886   12.29939432193961    4.37710858748477
H         2.65511591814087   12.79090345561731    3.54828388388064
H         4.09144484672380   11.87183772709575    4.00492267196044
H         3.41457879819901   13.06261010232700    5.11742632181653
C        -0.03405823756412   12.21700407631317    4.37783584060867
H        -0.28316407860764   12.97840612968312    5.12170349308808
H        -0.96692817542023   11.76264129242256    4.04138417697782
H         0.42750116998484   12.71642739240481    3.52695528494491
C        -0.95568548667259   10.03762178793030    6.39622046960293
H        -1.16160250715473   10.82171284038417    7.13038895710387
H        -1.10873469979381    9.07349642638010    6.87471700367177
H        -1.68042648458635   10.13334069746864    5.58870836155000
C         1.62710134461995    8.66812221949149    7.65026568950760
H         2.52233700071787    8.04821959204725    7.64880808675471
H         0.76034177798994    8.00966350560664    7.64713544229276
H         1.61559041712578    9.24890293069839    8.57602542033674

