59
CSD_code = JUTNUJ | q = 0 | S = 0 | Stoichiometry = C28H24Cl2N2NiP2 | MND = 4
C        -0.47390610557156    3.26816631332844    6.61410235360125
H        -0.88304545558322    2.85098292718987    7.51445029234105
C        -0.11789368794833    4.53549672127627    4.95653167588579
C         0.78089526334087    3.48306898625754    4.84925905046708
C         1.23226690028584    1.47580311257795    6.28415555750226
H         0.70281745582515    0.98358963221606    7.09889990866006
H         2.25040519330713    1.70778134684548    6.60649716225521
H         1.28030308053855    0.80254112755708    5.42607090536610
C        -1.74913758997757    6.04161684684294    3.14634912287199
C        -2.16868020933711    7.27266599460416    2.65088225671100
H        -1.47876212284654    8.10481289393468    2.64321117978394
C        -3.45287339803323    7.41017630965891    2.15897879595212
H        -3.78131531174784    8.36406550343105    1.77370680313703
C        -4.31612183089667    6.32567340430263    2.15405356886744
H        -5.31884467513872    6.43579544584657    1.76786846710030
C        -3.89405632711003    5.09737590213268    2.63636458794327
H        -4.56635231390430    4.25165385374868    2.62531456982921
C        -2.60977245420955    4.95024862097482    3.12703926761880
H        -2.27263351329973    3.99306948300199    3.50068844876751
C         0.18896581787809    7.33177423435052    4.77335139181280
C         1.28536714010285    8.16490057203457    4.59748889421999
H         1.98837392727920    7.95915856069105    3.79956286854630
C         1.45173008608672    9.26138981830514    5.42560451273297
H         2.29924150220307    9.91650846273252    5.28792887522925
C         0.53004328757756    9.51807498757242    6.42683028793478
H         0.65921791689090   10.37589777524884    7.07068739645493
C        -0.55853925645176    8.67750108512863    6.60764624345703
H        -1.27221754170321    8.87973663029818    7.39296229538694
C        -0.73386081405210    7.58148880085698    5.78462173838373
H        -1.56855668756031    6.90887250856684    5.92119478810260
C         1.76929505801764    1.83830896635348    2.73393139335355
C         0.55201849651304    1.16895397762115    2.82444495159049
H        -0.27584248529249    1.62598966104078    3.35170108601524
C         0.39815143278636   -0.06918961923938    2.22812110427833
H        -0.54681385117810   -0.58766274296482    2.30115381747482
C         1.45168733121526   -0.63755872513777    1.53019825077315
H         1.32819602195407   -1.60335710774246    1.06320893859560
C         2.65638577398323    0.03878974920421    1.41720644455594
H         3.46995081562787   -0.39728525171812    0.85699567212282
C         2.81838960350005    1.27695417875457    2.01082424641404
H         3.74191838712305    1.82744884611232    1.90362572812711
C         3.54354247300209    3.49360471127310    4.32890853753135
C         4.21074390445485    2.34719704533855    4.74265288655716
H         3.81863819937677    1.36947498632583    4.49917494644470
C         5.39463180051623    2.46465258227307    5.45021497581600
H         5.91950630780477    1.57441908864029    5.76545120830788
C         5.90966626544921    3.71530468228446    5.75006988201740
H         6.83608177865033    3.79743632273552    6.29875739781442
C         5.24425412820317    4.85996398758116    5.33920930513716
H         5.65009371519394    5.83442737598135    5.56564377199630
C         4.06393123861632    4.74835056168488    4.63058028593672
H         3.53572962273436    5.63204825707722    4.28043717976127
Cl        1.00242125371853    7.02280850610955    1.38078694732551
Cl        3.09304911755484    4.49786721488090    1.25104083623614
N         0.53592004475659    2.67845935211537    5.92849783168546
N        -0.88959465260135    4.37599078598033    6.06270266392987
Ni        1.48981307261774    5.26458491172109    2.39892654259837
P        -0.04719420637079    5.86664933533892    3.73070389090426
P         1.95107107611565    3.48698049885314    3.45522600979319

