58
CSD_code = JUTZUV | q = 0 | S = 0 | Stoichiometry = C14H28B10IrNO2S2 | MND = 8
Ir        7.62920353745174    1.09056496279392   13.05280824534565
S         8.37819422561958    1.36913304091351   10.81319094902103
S         8.62141296179480   -1.04457958347014   13.09253070943321
O         6.03497132054977   -0.16896986401079   12.38261592419392
O         5.14675106606900   -2.16960703371786   12.19545415035508
N         7.31999840541013   -2.01491752776602   12.82729916266788
C         9.46733943734777   -0.03500093401316   10.48076796841147
C         9.55089599748119   -1.21677454278357   11.53280844327230
C         6.21549386489218   -1.41219995927935   12.47227274454512
C         5.33731487498894   -3.57118018341692   12.22947629048350
H         5.64852063982277   -3.89405192647713   13.22514597816650
H         6.09831327067042   -3.87507833002037   11.50755195532999
H         4.37343476347467   -4.00486880720534   11.97147268772330
C         8.24563953679545    1.68728830098578   15.13673104096227
C         6.83562598999067    1.76808006216793   15.08400814290873
C         6.47713313593731    2.75144404287762   14.09197870797568
C         7.66982350740284    3.28868701546977   13.54380561535791
C         8.77895191466785    2.57561185969370   14.12972352270192
C        10.20926405521230    2.99444335273924   13.99735288973062
H        10.39148823961641    3.87887583271778   14.61016448035071
H        10.44255372888292    3.24450730861722   12.96504316084617
H        10.88446135463616    2.20882102009429   14.32638021840818
C         9.06023271918483    0.89922223550942   16.10929330900245
H         8.53425739868755    0.00403204789525   16.43284321092667
H         9.26857010678123    1.50938245286876   16.98976320384039
H        10.00982381807813    0.59884448716564   15.67263623544970
C         5.85443935059889    1.08032433073157   15.97358007976827
H         5.46894168448319    1.77992424867439   16.71737157071737
H         6.31268925286251    0.24374165756378   16.49544522196237
H         5.01007237744991    0.70834545956421   15.39566497652974
C         5.07598573940868    3.19256616418230   13.83160994601729
H         5.02451302962787    3.85666365257907   12.97354676529428
H         4.68293407455136    3.71576105506079   14.70482418356395
H         4.43749014313617    2.33278908775769   13.63676273483713
C         7.81007820640851    4.45499299084994   12.62094201018190
H         8.21068986172291    5.30844500820699   13.16982371243499
H         6.85242982672091    4.73496937341622   12.19181005780534
H         8.49358240286521    4.22303597531265   11.80642292258777
B         8.72423995415417   -1.54218881898901   10.07215093876319
H         7.55197739404232   -1.56129065929994   10.10805656344625
B         9.65451556601582   -0.63209150487405    8.89270259926646
H         9.08056058130017   -0.07399971195523    8.03575550297911
B        10.98517346269088    0.20053091015085    9.72342413542684
H        11.26183375551960    1.29361020705450    9.40027304220825
B        10.90791058534268   -0.18118997794855   11.43282061028448
H        11.02194590967690    0.59618446184721   12.30372347145725
B         9.77532031469467   -2.74795749288048   10.81611273762506
H         9.28055476192461   -3.67429126873178   11.34000760394544
B         9.88604646398219   -2.39617434588241    9.07668033185351
H         9.52935063417601   -3.15896553869200    8.25711155738943
B        11.29437932467302   -1.31123507856642    8.84359342711887
H        11.91565243083406   -1.32309067048573    7.84624536329711
B        12.06964340660998   -1.03406988397260   10.43017070842848
H        13.22301851165650   -0.85029329396985   10.55597668002532
B        11.11003997868559   -1.91667941310858   11.63703449433284
H        11.44939472256939   -2.30628685500183   12.69256539430883
B        11.37312187858630   -2.63607490609852   10.04019458154707
H        12.05010454158180   -3.58611449284341    9.89847712718583

