58
CSD_code = JUTZOP | q = 0 | S = 0 | Stoichiometry = C14H28B10NO2RhS2 | MND = 8
Rh       -2.44332972471553    5.56398343772214   13.04219200887786
S        -0.16387064509926    5.71925654431859   13.35999146281884
S        -2.24976671680267    6.94115405134812   11.16632809427388
O        -2.31471631301513    7.28528231156364   14.29234124631667
N        -0.06779164339685    6.88192605399099   14.51528119678302
C        -0.48414001222058    7.11667276163580   10.83572915107509
C        -1.17830289706169    7.51852704083609   14.77851594731492
C         0.53385672692743    6.57649607458952   11.91242721121159
B         0.38894337971401    8.27668366826486   11.77705245389473
B         0.39949338031962    5.67260951153440   10.46391782966766
B         0.14373254693716    6.91351906727417    9.25359874132218
B         0.13792288687554    8.49903738350049   10.05337813927548
B         1.59653695127806    7.93362899664264    9.21070823389834
B         1.75902541510595    6.17386987293825    9.47643333623850
B         1.95513058205910    7.50938427184562   12.03330916376715
B         1.96203633426140    5.92940475228352   11.22684475248199
C        -2.73163548912146    3.47690146818646   13.81566791670189
B         2.73591263741507    7.31812524620141   10.44418285114880
C        -2.90679182402359    3.57667886054522   12.37896060070516
C        -3.70359727290996    4.29697455292002   14.42419691800937
C        -4.07991953591976    4.37120780813746   12.13274833585971
B         1.74830297882397    8.76719083090073   10.79028123419647
O        -1.13364022193059    8.51441612475558   15.67491712264176
C        -4.52150218325624    4.88199484034504   13.38089752275327
C         0.13924591569641    8.83401442197058   16.20229848752321
H         0.56671010384453    7.97555711430756   16.72475562254623
H        -0.02754019487636    9.65732176747180   16.89385094091174
H         0.82290912599779    9.13675297460491   15.40615874787549
C        -1.75194357477716    2.57361757905733   14.49483392865869
H        -1.53544983284840    2.91233050283879   15.50525974064295
H        -0.81564776211306    2.52362031711114   13.94233820621438
H        -2.16752133120202    1.56568532546308   14.55110659805275
C        -3.96472083533606    4.48168829848132   15.88349914701160
H        -4.93440104260970    4.05174845426290   16.13886555650935
H        -3.99082839185098    5.54114159240834   16.13632280973554
H        -3.20032452990052    3.99909184744047   16.48715666020088
C        -2.25314078151701    2.67731730996598   11.37609833370835
H        -1.22091261484616    2.46486222068515   11.64567235841121
H        -2.27147981334445    3.11946412381372   10.38295772765946
H        -2.79555906546658    1.73079796573509   11.33609215908088
C        -4.73946586259365    4.54521835175984   10.80391830792178
H        -5.36858294141095    3.67747201207418   10.59805773635695
H        -4.00189656505123    4.63168388302309   10.00939992670387
H        -5.36061941300698    5.43673717764506   10.78794762902864
C        -5.74354919564097    5.70140117093517   13.64273345507153
H        -6.08627421605189    6.19459128825112   12.73697691691797
H        -5.53919361810029    6.46222018570145   14.39348973940154
H        -6.54421421962055    5.05905403602001   14.01476080523906
H        -0.21235872846184    4.67406417799283   10.54516982461858
H        -0.62409428660437    6.71087175660062    8.38981784136956
H        -0.22891489027305    8.83462404917931   12.60330720804201
H        -0.62948021271767    9.31224643582471    9.69868463686512
H         2.22448420998932    5.44506229795256    8.68128018679417
H         1.95687414563644    8.44368231643637    8.21521028513735
H         2.45950995756126    7.60550775056664   13.08869705308364
H         2.45579622244030    5.01860346527872   11.78186579659317
H         3.90324129942403    7.38539640385812   10.32636446301059
H         2.21105359939046    9.84182589300213   10.89964969186331

