58
CSD_code = JUTZIJ | q = 0 | S = 0 | Stoichiometry = C14H28B10CoNO2S2 | MND = 8
Co        5.59015530517192    6.78218486740344    4.04704560213658
S         4.20533935720599    6.35956524347301    5.76822067957113
S         4.00506844422673    7.97221195115700    2.94286517162324
O         6.11221872863599    8.26759782492214    5.17452477789482
O         6.20108651323720    9.20436960517151    7.16300479230543
N         4.81736837248359    7.42701456195997    6.85927102157684
C         2.51509176332576    7.85233016023803    3.94898483663851
C         2.61087594430094    7.11928537657531    5.34780052461214
C         5.68594068509986    8.26602010155404    6.36135539112972
C         6.60366890130798    6.32196032478775    2.27643011374167
C         7.55033314147211    6.48918402308889    3.32035986285059
C         6.13266228302245    4.76922173495609    3.93212795252614
B         2.44148358885709    8.82270606663971    5.37852533259740
H         3.39953348892186    9.45630845649981    5.61749063753711
C         7.24869607414516    5.54577303800710    4.35326016449227
C         5.70099494757990    5.27581101592701    2.66742563466277
B         0.98284314239541    7.58024333270400    3.23567071343072
H         0.93361432518831    7.52883515263134    2.06481345654949
B         1.78113571089060    6.28559603860244    4.10679366056194
H         2.36714180981210    5.39880535762508    3.60943760309526
B         1.60001145397527    7.79831517999555    6.54153697131739
H         1.97970822717120    7.78487704444799    7.65205241648534
B        -0.17715677866357    8.34169167110852    4.34682858500768
H        -1.18420023956785    8.80507962050956    3.95695919449343
B         0.07855613127482    6.57449852778266    4.41041742513645
H        -0.73291140472786    5.79704216082659    4.06846260098678
C         8.08290682875367    5.32669932481012    5.57321863768963
H         7.51550507377781    4.82925384651161    6.35661456378829
H         8.45110704732708    6.27517951691418    5.95889169448568
H         8.94407355370186    4.70292971446173    5.32539998765723
B         1.37966600161954    9.12691314463898    4.01435919147426
H         1.58418615944746   10.06607388003800    3.34243692338408
B        -0.04696595101276    7.51515926819305    5.92762230865637
H        -0.95734408909260    7.38725797228132    6.65963423138580
B         1.18980835050573    6.25824884206276    5.76222860914884
H         1.32782884130114    5.26503563290478    6.37516577624013
C         6.60025540893704    6.97415237459384    0.93435169253483
H         7.24740937036075    7.84622583968769    0.91624638912810
H         5.59410567028054    7.29074553574437    0.66415337352656
H         6.94583780285916    6.26206311235232    0.18270512610429
B         0.74058276641625    9.10097082024864    5.68603490202656
H         0.38269715487991   10.07948230480107    6.22938664758329
C         8.71535605736513    7.42078908523496    3.35112382636351
H         9.62741769019379    6.86338048624384    3.56442875022307
H         8.57978852004543    8.16703733094865    4.13334192590245
H         8.82984034541149    7.93727166768377    2.40251004101281
C         5.58848932619651    3.56457252598441    4.62851621596751
H         6.13584987610862    2.68080297475442    4.29615629993963
H         4.53502799398297    3.41754244912145    4.40279727197983
H         5.69907722832488    3.64659773219352    5.70753199209833
C         4.68555355702652    4.66606882589608    1.75562877710538
H         4.06806656539714    5.43623748180946    1.29710832882220
H         4.04054246074669    3.96989841155468    2.28480595118732
H         5.19594163623912    4.12357213532316    0.95842212828917
C         5.68053394992142    9.25940765889495    8.47833609687268
H         4.60521325017834    9.44849965580459    8.45970118727926
H         6.20284345146217   10.07853925224465    8.96765927030475
H         5.86273818454304    8.31956275745546    9.00351675886986

