64
CSD_code = JUVBEJ | q = 0 | S = 0 | Stoichiometry = C19H30B10NORhS2 | MND = 8
B        13.83871763264356    5.91706093148371   14.20541892040849
H        14.83924757146931    5.32961675351074   14.39100342294307
B        13.77093283075209    7.63186082181182   13.82475860883856
H        14.79056524830489    8.19676844470644   13.67107672437456
B        12.52275760556512    8.39328748733762   14.82882296114668
H        12.74012823920921    9.44725893081933   15.29620861358322
B        11.77654006365298    7.16261107598052   15.84794358753673
H        11.52819576364081    7.29740216359299   16.98625641469696
B        11.04123251636906    5.94233317908540   14.82035523203896
H        10.18858856354957    5.27219166038688   15.26812773696801
B        12.29669295626939    5.18374434958404   13.81981074134440
H        12.25130193286406    4.02623488394483   13.63143568373083
B        13.00302287244661    6.43691839752986   12.75420157521755
H        13.43133238119932    6.17884972013815   11.69089051900898
B        12.17887593988332    7.97953388119826   13.13057546259061
H        12.03223423443728    8.81445113083754   12.31653579712592
B        10.95067732962689    7.68017592672296   14.39432100607245
H         9.94501109522829    8.28414410928624   14.46137234526422
B        11.25664254227701    6.44741361154524   13.12975687003301
H        10.44803740616022    6.19528690729354   12.31492598904530
C        12.61976829462338    5.70980242756731   15.42074356156346
C        13.42634810305460    7.06879580807418   15.40412175396568
C        17.02021016740699    4.81761980587761   17.06959443821358
C        17.07970308035603    5.16911476832059   18.45957776038240
C        16.32356922988917    4.19672375598172   19.18891510795267
C        15.77181441816907    3.26728345019072   18.26162447281414
C        16.20161645378560    3.65172917946988   16.94175999321923
C        16.01703596018080    2.80546603737522   15.72107660845992
H        16.57349944599700    1.87488860097585   15.84156408559635
H        16.37904209005383    3.30907391197118   14.82897596156921
H        14.96731228738001    2.55485094420095   15.57567885023780
C        17.82044961155604    5.46278527269619   15.98196858746795
H        18.81872066375270    5.02188636367682   15.96247219922755
H        17.92524425781123    6.53273846833322   16.14983589149178
H        17.36281698027440    5.31240156609620   15.00717142931577
C        17.95948758302038    6.21643856022747   19.06635593002409
H        18.12488983324733    7.04153044509523   18.37698541542029
H        18.92939949239491    5.78144804019853   19.31693022172438
H        17.52137702920980    6.61281986405714   19.98003143531818
C        16.23242326661218    4.12792595666526   20.67844583847647
H        15.40337244553573    3.49894852586137   20.99149864408223
H        16.09420639551079    5.11858853006861   21.10744009283271
H        17.15740944453778    3.70916602961182   21.07927868161617
C        15.04983836371584    1.99700378072106   18.57940350403517
H        14.55523894129184    2.05453363543996   19.54559154306057
H        15.76108379072935    1.16879129498756   18.60300369371998
H        14.29923775977729    1.78178153969853   17.82198773147684
C        13.58337194035305    7.53439338916751   18.87558952594199
C        12.83490237822878    8.30573620615954   19.89344676493123
C        12.44518047497211    9.61752750312804   19.64139649356461
H        12.70288598741740   10.06533648356660   18.69486649940796
C        11.73624456640016   10.31856069200938   20.59811715212800
H        11.43173197046316   11.33618291070566   20.40293983427906
C        11.41346881630490    9.71886843825178   21.80563193161602
H        10.85926970156711   10.27052256048151   22.55097372970485
C        11.79777765635792    8.41164920817772   22.05639832113790
H        11.54311057928449    7.94372559133800   22.99613549950567
C        12.50541164815052    7.70360508212924   21.10345484597475
H        12.80761527433596    6.68204597140564   21.27851490358981
N        13.94346378979322    8.17435931180367   17.79895210143199
O        13.83161046173453    6.31160437393631   19.11734719238284
Rh       14.96547520958433    5.26460526934145   17.72475266264156
S        12.94972040252945    4.53180405320514   16.74640222588672
S        14.72700902709660    7.28169202495525   16.65464867062143

