53
CSD_code = JUVCEK | q = 0 | S = 0 | Stoichiometry = C18H18O16Zn | MND = 6
Zn        7.52805047783507    2.14931326911453    7.47207143504851
O         6.82265373646164    1.25532877144908    5.66585539342477
H         7.16905629505086    0.34478091812280    5.81968396398566
H         5.86612522956178    1.19513096253473    5.59944916281853
O         6.58535055693385    9.90837552884674    7.43627028389620
H         6.36147054319778   10.82067823276234    7.67794531555550
O         8.91070127434355    8.00118816436299    1.90887995632185
H         9.27682777131072    7.80969636919518    1.03132717967592
O         7.19177254632954   10.86880399533209    5.51830697597942
O         7.83876514648430    3.83406203164882    6.54687499181133
O         7.01217110532120    5.11217181131929    8.15473315150575
O         9.21860934447373    5.81330055701074    2.20574380972900
O         5.61104901916923    2.79156185299906    8.14079773182909
H         5.49848602050155    2.39387051364109    9.01082778200803
H         5.82455870067237    3.73551490756247    8.29573900121694
C         7.43950232369345    8.50940665081964    5.73914857947480
C         8.30213226478441    7.08885381206257    3.99717344994278
C         7.94807755205297    8.35340496433333    4.45288792779277
H         8.06208895700903    9.22149820314503    3.82204998688819
C         8.14674486794924    5.98273349840396    4.82787496480276
H         8.41635177119991    5.00008783388086    4.47168247809195
C         7.64178071620674    6.14038438452516    6.11120775519326
C         7.28673561587581    7.40321136877581    6.56887407971596
H         6.89381313298012    7.51257875080473    7.56806605934789
C         8.85231008388643    6.87801762028767    2.63544164625172
C         7.07251247268069    9.87465041079002    6.18877158466707
C         7.47686718612614    4.94859937868807    7.00856903382075
O         8.23708921281858    3.04250962379748    9.27774909971307
H         7.89116918738062    3.95326334282579    9.12518454167429
H         9.19389070601306    3.10167301999732    9.34085832609342
O         8.47119605204415   -5.61018525282398    7.50887146572395
H         8.69508136000467   -6.52257713552121    7.26752183166262
O         6.14416163338622   -3.70193420411532   13.03514042257909
H         5.77813689972738   -3.51027029656609   13.91268447757229
O         7.86368619504340   -6.57016696636478    9.42671379880331
O         7.21765468238845    0.46444199752540    8.39691849658058
O         8.04573546092298   -0.81369301836499    6.78980979202494
O         5.83728583060646   -1.51390778687407   12.73817104097922
O         9.44692500191255    1.50782436258520    6.80478959856296
H         9.55907498949517    1.90546220266143    5.93467862454868
H         9.23446957394031    0.56370506685676    6.64993592011838
C         7.61671573554407   -4.21074887242119    9.20547545904387
C         6.75383697446324   -2.78985913867090   10.94706546286042
C         7.10795896184356   -4.05449165889889   10.49163260458506
H         6.99369171008464   -4.92249470137679   11.12254510175877
C         6.90957366155167   -1.68388007715469   10.11624873920199
H         6.63992589328357   -0.70115639631508   10.47218721844309
C         7.41485686948362   -1.84175905279677    8.83305963133464
C         7.76984732038436   -3.10469123429009    8.37563456517528
H         8.16286498203007   -3.21426506918551    7.37650447362468
C         6.20277704944655   -2.57886836624220   12.30843705376123
C         7.98337451701933   -5.57615912669888    8.75611262503414
C         7.58005482709280   -0.65007602399838    7.93561594773842

