82
CSD_code = JUVJAN | q = 0 | S = 0 | Stoichiometry = C41H33O4P3W | MND = 6
W        11.94335059330520    3.30491318889164    4.30768463772243
P        13.38332266988000    5.20468874578550    3.81649325951553
P        15.64493882356290    3.67592391165305    4.94060407793924
P        11.03049715773315    3.44322332701441    2.05259947942957
C        12.57443152067409    6.83339173769282    3.94528000999233
C        11.44152572683651    7.01368386149116    3.15394443250187
H        11.12264091999132    6.21073385741248    2.49671352505362
C        10.71989325691071    8.18847585767583    3.21218324291714
H         9.84131143348776    8.31424326928749    2.59645449487603
C        11.11892029829057    9.19999106053121    4.07236044036372
H        10.55300681950426   10.11802047819313    4.12720844490800
C        12.23735389826140    9.02700890225534    4.86851298137738
H        12.54491778608884    9.81104671889745    5.54540380852453
C        12.96444497898206    7.84973235686489    4.80924759177815
H        13.83001229091175    7.72948319896226    5.44495017002803
C        14.19829205970736    5.38542025504679    2.19426248777911
C        14.79151142551597    6.58749203502781    1.82092490565043
H        14.74329764903854    7.44034320168126    2.48550777948751
C        15.43286231233336    6.69165363016316    0.60147017375667
H        15.89436679739619    7.62530233378675    0.31427002436520
C        15.48504971150106    5.60164251165978   -0.25293563234570
H        15.98876268513445    5.68690697967177   -1.20446021061368
C        14.89077493256426    4.40593183256804    0.11184762355846
H        14.93155284056476    3.55402445224711   -0.55124528816361
C        14.24723731183285    4.29926717470585    1.33153349994781
H        13.78589789521102    3.36359109222384    1.62747575624326
C        14.82333480545708    5.35269990235581    4.94216598204015
H        14.41914766778105    5.52076431484825    5.94623804081970
H        15.50658747739216    6.16009776857622    4.66259511541792
C        16.86479485463036    3.96006576298087    6.27890307896913
C        16.40684664072928    4.33572830193936    7.53973110073011
H        15.35181556849148    4.50449761583932    7.70294606325268
C        17.28936708706033    4.47531491602696    8.59405945244211
H        16.92250034176502    4.77514254519295    9.56508257008130
C        18.63845212876721    4.22044789777285    8.41043257179360
H        19.32816212865815    4.32920696854422    9.23446200048334
C        19.09586974185268    3.80852276293856    7.17034430514525
H        20.14399807356888    3.58912428833965    7.02554302196125
C        18.21553371159802    3.66926917238875    6.11269936843572
H        18.57993128989892    3.33505281968694    5.15145672002872
C        16.73660673317566    3.88259698597424    3.47808155498239
C        16.79171049795963    2.83355056053149    2.56779816854275
H        16.20115170132919    1.94666719082230    2.74728518817568
C        17.59447881702527    2.91895165611053    1.44411002141800
H        17.63021522921394    2.09736128382982    0.74355289167245
C        18.34985299553711    4.05603633016562    1.21967520924868
H        18.97450840615593    4.12886060602253    0.34139832923169
C        18.31328769764466    5.09935245627712    2.13078722282876
H        18.91427350468365    5.98218192491463    1.96534102096179
C        17.51761676835115    5.01277072219170    3.25681251116117
H        17.52416015908330    5.82165762318138    3.97480541016878
C        11.28872533926863    1.98886018787009    0.99214329780805
C        10.91151541037536    0.74258785393039    1.48151834605900
H        10.46311622215602    0.67334603740665    2.46436759320152
C        11.11325186836557   -0.39230003993974    0.71968293310074
H        10.81889858005973   -1.35834277856539    1.10234952597190
C        11.70119729743814   -0.29066405624395   -0.53165399704952
H        11.86656432413118   -1.17847800798229   -1.12397944537843
C        12.08023285258725    0.94770936887260   -1.02166050265821
H        12.53980296256544    1.02610657975404   -1.99660401409037
C        11.87234339815267    2.08753264679838   -0.26541257630112
H        12.17216739263218    3.05613613839974   -0.64496587691435
C         9.24308945001432    3.68705764656841    1.81582769216961
C         8.75164045216261    4.13388159452653    0.59232602446966
H         9.44169054497556    4.36057237647872   -0.21060795913159
C         7.39111695308036    4.28815869277618    0.40833556829435
H         7.01165208019910    4.63809395984464   -0.54084828109618
C         6.51363727573677    3.99452410976428    1.44086214977254
H         5.45058802338511    4.11708706686339    1.29456121682732
C         6.99840053147209    3.54705483058556    2.65838056272254
H         6.31472281430775    3.32025699026214    3.46306314849690
C         8.36068640334135    3.39310273089511    2.84717489611299
H         8.74885771624035    3.05078885789060    3.79798001266470
C        13.24312788879427    1.95206787051442    3.64806297637724
C        12.73546723294610    3.17972040986706    6.10995702848970
C        10.77736490124135    1.79590992715740    4.81976423284107
C        10.62093133449123    4.61435876476743    5.01387158704198
O        13.93072976604383    1.10228997604396    3.30531689605377
O        13.19779123467664    3.10980024912865    7.15762956371456
O        10.13040632577343    0.91939621715604    5.18474624717505
O         9.87347158877634    5.35421420750568    5.46854149204286
H        11.43523401483098    4.37941124232891    1.08967102798830

