85
CSD_code = JUVTUR | q = 1 | S = 0 | Stoichiometry = C41H38IN2P2Pt(1+) | MND = 4
Pt        0.78015348935196    3.98665335654918   13.18629736287755
I         2.55797232081653    4.88508099287383   14.89283027519567
P         1.78153351765293    5.23962755286379   11.52434675505195
P        -0.28790534118787    2.86655566818166   14.90037431248707
N        -1.56859867309202    2.16143477360024   10.19938576918946
N        -1.72117011436527    3.86809971487023   11.50416010942592
H        -2.08540638532879    4.70495953570673   11.93519089291294
C        -2.32959806362285    3.19428832867195   10.52465934874007
H        -3.26648252222029    3.44881479140982   10.07260074992725
C        -0.53203048174580    3.26553201211986   11.83633151039330
C        -0.46071502988272    2.18090016108073   10.99900157630038
H         0.30045276202662    1.43146205165205   10.91607565487686
C        -1.86438882013116    1.16435962364241    9.19745651951330
H        -0.92786995214023    0.88519115721885    8.70927388509934
H        -2.52953686481197    1.60954900454313    8.45456941126902
C        -2.51573127719427   -0.06474229320759    9.82219798004227
H        -1.85210000833482   -0.51769785826365   10.55405218031846
H        -2.72930507957748   -0.79609554341894    9.04868241120785
H        -3.44718409728325    0.20445935857961   10.31422520213478
C        -1.89158453288351    2.15181941015177   14.40808113779116
C        -1.89172126614750    0.89129558235176   13.81472707444027
H        -0.95989952141539    0.34741597833797   13.72761165500848
C        -3.07312815356267    0.33333178239961   13.36594822819577
H        -3.07293057363258   -0.65698612403074   12.93539576071455
C        -4.26186861179804    1.03787187768371   13.48309369604225
H        -5.18581357495813    0.59974705998401   13.13728106078952
C        -4.26527894941044    2.29749934472148   14.05838968226126
H        -5.19149342011592    2.84321347470922   14.15960937637623
C        -3.08547175742055    2.85502556397182   14.52112172595271
H        -3.09553491890957    3.82985366612063   14.98930743301967
C         0.48741378420888    1.49305701867342   15.78417181006854
C         1.82168030808611    1.17896913096996   15.55600377869618
H         2.39593114075416    1.75685803666244   14.84423829076820
C         2.41255310841542    0.13494074584486   16.24512001744999
H         3.45103695560443   -0.10283785327571   16.07296066650699
C         1.67208780425405   -0.59868456497765   17.15671918949693
H         2.13414752703972   -1.40939326428079   17.69882081837231
C         0.33468773000380   -0.29952221482006   17.37213612254574
H        -0.24269298613833   -0.87900279479185   18.07673589904050
C        -0.26335874571839    0.74010733813824   16.68635669962008
H        -1.31088898165390    0.96566550045642   16.83849303436230
C        -0.73468886890421    4.13153696280412   16.11845018665652
C        -0.72356474743964    3.94621818213832   17.49307780700646
H        -0.43649183805270    2.99391786276075   17.91378677293002
C        -1.05689289443164    5.00265047483507   18.32467898670357
H        -1.04136339535890    4.86294738672913   19.39465097318770
C        -1.39462130873741    6.23548460351244   17.79314930484848
H        -1.64542686791401    7.05469835317758   18.44904215744398
C        -1.39124054598182    6.42830654312834   16.41952222340541
H        -1.63486392572692    7.39609904173880   16.00709305032511
C        -1.05757019163641    5.37996993153558   15.58730084163325
H        -1.01598837079971    5.51778690789470   14.50480646838345
C         2.19632245732785    6.93042173413117   12.02248020073493
C         3.42998756000649    7.52808900498787   11.80687039115530
H         4.22154220525421    6.98762957773341   11.30968921223459
C         3.65019975867223    8.81702023564905   12.26265343945126
H         4.61094936125234    9.28119404982585   12.10101419816671
C         2.65383200350513    9.50396488123997   12.93477588357506
H         2.83665955190687   10.50547724220856   13.29214231355913
C         1.42852679826068    8.89975067330889   13.17206790779334
H         0.66022326526096    9.42651986034474   13.71779742742758
C         1.20354982345767    7.61460940866739   12.72293730900957
H         0.26308059437662    7.11290258774990   12.93448088809459
C         3.27398084199411    4.41503091678360   10.93164625922902
C         3.66697896418738    3.24033474699631   11.56422537479549
H         3.06673443661734    2.85276799120587   12.38594764498182
C         4.80518945690358    2.57582516825027   11.14671059166828
H         5.11633786364459    1.66931938068355   11.64333597421271
C         5.54754187828271    3.08098973717431   10.09152639923008
H         6.44212042677697    2.57016359580346    9.76992552627769
C         5.14129042925006    4.23551741661987    9.43869761098736
H         5.71492270130967    4.61549804202839    8.60683365262617
C         4.00258411144659    4.90311330837645    9.84933040925915
H         3.66855569104313    5.79110238093930    9.32920300184266
C         0.80970833589083    5.44380261641824    9.99430238091551
C         0.78362641229441    4.39061619967422    9.08160726097432
H         1.41506803391770    3.52789608888203    9.24827314888568
C        -0.02429969473832    4.45741790476057    7.96269417329683
H        -0.02850802603555    3.64373732305033    7.25206748177413
C        -0.81733739167020    5.57353425685146    7.74387559373326
H        -1.44402156890499    5.62755188427806    6.86689276077433
C        -0.79096558760456    6.62586527996701    8.64379806679360
H        -1.39524162738807    7.50290636878920    8.46745972005878
C         0.01493246238715    6.56223103243668    9.76761728773307
H         0.04117968258638    7.39200577007537   10.45992667184318

