39
CSD_code = JUVVOL | q = 0 | S = 0 | Stoichiometry = C16H16N2NiO2S2 | MND = 4
Ni        1.38387224709980    1.55812117082305    8.29567581249954
S         3.47786448576910    1.46926566411967    8.91405938100615
S         1.54141831648793   -0.25467603317658    7.09177273290000
O         0.36321489854409    4.11791935255602    7.86684368738385
O        -1.03646340655436    1.99120034364089    9.59882309188550
N         1.35444088995893    3.46206351649173    8.61286100743857
N        -0.51761677794538    1.30783887938202    8.48603941702276
C         3.73425082435055    2.64171780987775   10.15167967530582
C         2.93572135047698    3.78499166836543   10.39950494571351
C         3.27709150049831    4.63304403204647   11.46887338653315
C         4.36241147556532    4.38221434597982   12.26825324034523
C         5.16757232992644    3.27331982326182   12.00042730914622
C         4.86328767387641    2.43255563770632   10.95992857036936
C         1.85456985376962    4.17892528721841    9.55677627161157
C         0.38741070945021    3.75540039107909    6.49992245286032
C         0.07669509800393   -0.49155636737830    6.21641463789980
C        -1.17985269819487    0.09032830749689    6.51396611037787
C        -2.27640983641324   -0.19993199799925    5.68064998391428
C        -2.15706895457597   -1.03025153714313    4.59652226041456
C        -0.92342518049283   -1.62499085862859    4.32231940700761
C         0.16105431435770   -1.36742793976672    5.12152575369908
C        -1.42110824961073    0.88313373417698    7.67355547885323
C        -0.31685731496649    1.71427395673164   10.78488233727040
H         2.65472484773433    5.49682375645988   11.65508181304283
H         4.60052094217073    5.04035754267892   13.08951458064764
H         6.03279899962860    3.07553517458935   12.61539159721917
H         5.48067212120677    1.57273613656369   10.74897585699873
H         1.45752260196852    5.18332455541881    9.69100771453678
H        -0.63304694353356    3.83978126843011    6.13203233301981
H         0.74267900385483    2.71510340407001    6.37580571943522
H         1.04551690912125    4.42789052526097    5.94130532843488
H        -3.22896687103155    0.25487565235541    5.91262046226089
H        -3.00907161098381   -1.23238079867779    3.96602138959883
H        -0.82224622278934   -2.28895374891852    3.47678724939074
H         1.11756446708353   -1.82229562161275    4.91409638524664
H        -2.45838262211352    1.10546379482258    7.91714375757633
H         0.74524313366156    1.50482627550249   10.55929059324164
H        -0.75124648766799    0.85053708355888   11.29894452686584
H        -0.38965581770162    2.59969581263155   11.41410374101781

