54
CSD_code = JUVXAZ | q = 0 | S = 0 | Stoichiometry = C18H32ClN2Rh | MND = 6
Rh        4.63731898481335    2.69505589814637    1.98018886295790
Cl        5.18179345816610    4.76087570637598    2.70903575305838
N         6.46033826073787    2.69019357372786    0.88234023467297
N         7.47430739622923    3.71186378915113    0.95883486165213
C         7.72010745013242    2.43388771980508    1.53436331604104
C         7.71181344351274    2.22825026171595    3.03151369614390
C         9.09753436401941    2.56185176890214    3.58303480909485
C        10.16850813023460    1.67300623227442    2.93770878503836
C        10.13791497059045    1.90676955002019    1.42188915786492
C         8.75999529665380    1.58618452092005    0.83805987736382
C        11.57727350650712    1.85839231584532    3.56421661638328
C        12.59904397755844    0.98009718367155    2.82918982518529
C        12.05353311742263    3.31170609712049    3.50802433787122
C        11.54938855640685    1.40591826211201    5.03019482957937
C         3.78694187121625    1.11994481733647    0.83375372831712
C         4.55615176368729    0.59412009168752    1.87204642125445
C         3.98986528831716    0.01691664984389    3.15024663946458
C         2.94590466634715    0.93373036382268    3.81420947611257
C         3.20110469971458    2.39600680813557    3.51380637837249
C         2.61037208032592    3.07162643445922    2.45041525190458
C         1.70766418657380    2.43785419044511    1.41787658863267
C         2.27309126065857    1.12543402522644    0.84381860992824
H         6.42750061197243    2.32646655371525   -0.07589656466060
H         7.17588647878047    4.42854703821920    1.63148691440696
H         6.94914911545659    2.86812852418476    3.49063680520379
H         7.46542115561723    1.18493693416673    3.24821933651242
H         9.31219656197091    3.60968283368840    3.37021254375910
H         9.08377193023156    2.42641712575967    4.66321552653469
H         9.88576715823842    0.62707920420731    3.11517096538432
H        10.87474131992280    1.28032009870877    0.92171408734456
H        10.36505291519164    2.95083231552258    1.20413890668124
H         8.52756039830396    0.52799697943797    0.98637780092842
H         8.75760778886174    1.79850122071766   -0.23319786824974
H        12.82672403024024    1.37495785993586    1.84296476701756
H        13.52896984623587    0.94524753052468    3.39236772601254
H        12.22995978188791   -0.03796239112822    2.72373152768017
H        11.42516847230588    3.95525562299519    4.11690472114465
H        12.05320474261186    3.68690504613958    2.48834265340647
H        13.07017052906290    3.37752045815909    3.88971765970020
H        11.17978895539835    0.38593896820982    5.11105003907572
H        12.55345907721877    1.43727225662015    5.44731041668973
H        10.92103207522661    2.05150014687310    5.63697671688821
H         4.22594886042335    1.11890843143938   -0.16475353121729
H         5.53302571457562    0.18133761074020    1.61321442289448
H         3.55320713534176   -0.96698698866486    2.94573514866144
H         4.81879521305249   -0.13621039216626    3.84587601494380
H         2.97892944275714    0.78109106250630    4.89449208176271
H         1.94036004219684    0.67307944535571    3.48251517535072
H         3.51558456172885    2.99027913195430    4.37286577813126
H         2.46558061700491    4.14764946812483    2.55021446322618
H         0.72040055424259    2.26534741603969    1.85950687539716
H         1.57699125154054    3.15403316280596    0.60283967347489
H         1.90829432319545    1.00258570292288   -0.17777227621951
H         1.91618260937556    0.26995536154684    1.41825343524770

