81
CSD_code = JUWDUA | q = 0 | S = 0 | Stoichiometry = C42H35IP2Pd | MND = 4
Pd       -0.15745810503905    4.78891063798978    3.80097944653352
I        -2.70074238114401    4.55450961935117    4.47886995558886
P         0.26400450345534    2.61375501435674    4.21469384746322
P        -0.36830000216954    6.94815967849281    3.20538778371716
C         1.87266863908995    1.92311287271107    3.71660131941085
C         2.08568551223173    1.36934658513303    2.45982682169827
H         1.25615179388937    1.24100560168692    1.77713247389598
C         3.35809223932679    0.97799315851424    2.08367782191463
H         3.51803099245282    0.54477995593720    1.10685554667229
C         4.42414210905677    1.14528577703813    2.95070929568268
H         5.41729577962289    0.84592474645508    2.65008818588088
C         4.21691719199977    1.69851431926806    4.20416534275644
H         5.04729902112555    1.83178756108132    4.88195728302382
C         2.94865476148081    2.08811256038932    4.58540828492300
H         2.78216327188416    2.52591624819659    5.56163284749151
C         0.10392605092873    1.98911070117199    5.90577345797703
C         0.39724242763425    0.66814001388813    6.23409761991834
H         0.73701314799566   -0.01491251848366    5.46650792789589
C         0.27009685275766    0.24615308759665    7.54379099718293
H         0.48890791398335   -0.78020302463872    7.80095392147972
C        -0.13331909824614    1.13629267381121    8.52805303523632
H        -0.23357717328993    0.79768560600994    9.54872454693452
C        -0.39692097310649    2.45766817725360    8.20896061209439
H        -0.69933500015291    3.15232190052209    8.97839170793729
C        -0.27429261866285    2.88431756103852    6.89938976771543
H        -0.47555230933549    3.91994441438956    6.63484986734263
C        -0.91640757004631    1.72221043595321    3.16097539963227
C        -1.59640769957602    0.56148788661256    3.49694580628723
H        -1.43634759156246    0.09448951037921    4.45778587693832
C        -2.50878945465731    0.02355449444973    2.60415275192278
H        -3.04681890165430   -0.87483329579800    2.86846447447543
C        -2.74455489703959    0.63679069507790    1.38609763543326
H        -3.46351516853216    0.21433536038618    0.70004351176348
C        -2.07598100507890    1.80507673091904    1.05153702752212
H        -2.27512433587952    2.29266046052652    0.10803404517017
C        -1.17072808404808    2.34905269040351    1.93956983536683
H        -0.64902475132418    3.28706381516278    1.70624335837587
C         1.77630281281967    4.99241382487667    3.41714149430141
C         2.30575693137703    4.81675268327417    2.14748303650200
H         1.65683620523606    4.58100759919708    1.30547813033722
C         3.66792232720335    4.94613981713855    1.93564953837682
H         4.07306822418270    4.80560112907585    0.94303670472198
C         4.50796938663030    5.25537817748743    2.99075245661469
H         5.57105543696635    5.35553239768069    2.82444800679142
C         3.98447660140394    5.43524487450108    4.25911621478249
H         4.63844181409428    5.67774920486665    5.08603489572359
C         2.62206045460771    5.30189770980587    4.47263054498295
H         2.22121208591629    5.43963983529004    5.47808421526073
C         0.90997228162102    7.74342189629311    2.18302505878838
C         0.78475079575577    7.83131812725357    0.80112119443805
H        -0.13178497921619    7.51533840933835    0.32054346018764
C         1.82893765364640    8.32688872838273    0.04097022570477
H         1.72443552724016    8.39558922642791   -1.03228193069317
C         3.00551144423944    8.72760827550553    0.65059413181758
H         3.82170697744392    9.10668790748963    0.05350049310713
C         3.13582451792563    8.64002918351536    2.02743675962468
H         4.05326192834031    8.94920147732156    2.50624651086541
C         2.09566933101282    8.14916306560413    2.79110165457728
H         2.19985726219347    8.07224999833897    3.86544406805448
C        -0.36854810348023    7.97553371609121    4.69673434121486
C        -0.33540649058212    9.36681838533680    4.66148931141029
H        -0.29747039299716    9.88091716508393    3.71003260706495
C        -0.32786590352549   10.08069725769517    5.84521956470603
H        -0.30817966988406   11.16067873468322    5.82060646617541
C        -0.34080588438535    9.41606982937834    7.06219910386133
H        -0.33702769897747    9.98138279550250    7.98244356846556
C        -0.34665509042565    8.03155826091552    7.10170272480027
H        -0.34360320583106    7.51637160271926    8.05105741484487
C        -0.35743652621716    7.31278317056096    5.92062794904264
H        -0.35460300388441    6.21738966993564    5.93715408714589
C        -1.89401290066775    7.28597066661883    2.28310840056616
C        -2.22644623583409    6.31153158555596    1.34319587993021
H        -1.58359896059112    5.43590990887746    1.24223304750312
C        -3.36919789401772    6.43924840878742    0.58072908619786
H        -3.62935975421955    5.67988924751284   -0.14194877906063
C        -4.19413790869745    7.53828907722780    0.76471191260640
H        -5.09598040190681    7.63730692642709    0.17914216732175
C        -3.87730747787782    8.49686050394683    1.71174012588086
H        -4.53389885646316    9.34050911437466    1.86594898636464
C        -2.72853560950018    8.37658324013058    2.47546234968504
H        -2.49866213902196    9.11392547057862    3.23062337825706

