81
CSD_code = JUWFIQ | q = 0 | S = 0 | Stoichiometry = C42H35BrP2Pd | MND = 4
Pd       -1.64495755806826   10.58614043880154    3.78004042517778
Br       -4.00549713568600   10.37014058334349    4.41696707375781
P        -1.28485998221089    8.41110107371145    4.21681320419496
P        -1.89573440899903   12.73188259942753    3.17584549972639
C         0.31408040191688    7.68559760873109    3.73636140027797
C         1.38947058134656    7.85454778362089    4.60501059470035
H         1.22386586078344    8.31162337546208    5.57227049864149
C         2.65460712590074    7.44440607103237    4.23525733923758
H         3.48473274310313    7.58162948711620    4.91252888707915
C         2.85962364282034    6.86619309511267    2.99272899065534
H         3.85051196522700    6.55167004291054    2.70031352459959
C         1.79440406474474    6.69511276467375    2.12555481889218
H         1.95260744325750    6.24293865344413    1.15716995993846
C         0.52528958059835    7.10766429608482    2.49052879826205
H        -0.30371489544472    6.97654424054433    1.80796993746413
C        -1.50032395659240    7.76405131558416    5.89500292193341
C        -1.17906487832596    6.44682116684171    6.21315395352823
H        -0.78423932623641    5.79010427303194    5.44891196666566
C        -1.35252449799515    5.99361417533945    7.50697048082948
H        -1.11024925342477    4.97018751129429    7.75472966426852
C        -1.83394988365955    6.84911302645426    8.48676708500963
H        -1.96954958146379    6.48712469607194    9.49531090269342
C        -2.13379638254857    8.16503944241167    8.17746495645873
H        -2.50131224082050    8.83227054943428    8.94276080782280
C        -1.96431505245179    8.62353506493025    6.88359827184309
H        -2.20209826955200    9.65223030666583    6.62868794767202
C        -2.47912313163412    7.55224223918635    3.14924900476275
C        -3.19528414435073    6.41513606529948    3.49201864327614
H        -3.05229062484358    5.95356969861110    4.45830747090234
C        -4.11655450375594    5.89314421975051    2.59914098614142
H        -4.68196494042900    5.01343066294412    2.86924977068764
C        -4.32548426509823    6.49917979686870    1.37258732563180
H        -5.05159486656708    6.09032435288015    0.68566472906882
C        -3.61837365811380    7.64198413856006    1.02965141378215
H        -3.79374826199833    8.12233557261439    0.07771760445752
C        -2.70324248898907    8.17023490723969    1.91772777766516
H        -2.14695533213056    9.08436049553934    1.67286359397882
C         0.27758112679172   10.77450826902003    3.39859204208472
C         0.85372026964070   10.59623891985854    2.15107591378419
H         0.23569286703490   10.36360283077935    1.28655648362685
C         2.22433729504536   10.71907026955951    1.99369488713820
H         2.66898970082408   10.57616797813206    1.01847066136998
C         3.02329910336354   11.02485329694301    3.08138644258477
H         4.09271166745791   11.11948272786310    2.95718854149767
C         2.45142442684782   11.20842189685970    4.32862777532133
H         3.07410544828323   11.44898884253748    5.17997343159840
C         1.08055006835071   11.08028959072589    4.48630175413644
H         0.63931062236598   11.21960717335596    5.47505993265654
C        -0.67422299273478   13.53807864854369    2.09489163873714
C         0.55648583426192   13.90354377355618    2.63530440266248
H         0.73196320010332   13.78099645366217    3.69584361187502
C         1.54911739666886   14.41314819727270    1.82228171948725
H         2.50144821294454   14.69165147176801    2.24884009529699
C         1.32615538167230   14.55887334262633    0.46216839829581
H         2.10425230545779   14.95444628542600   -0.17381917795305
C         0.10603917936766   14.19421891099658   -0.08101738489569
H        -0.06984979444734   14.30657443909730   -1.14116132779243
C        -0.89079776486527   13.67999605006738    0.72901803786909
H        -1.84175958515507   13.39152438403447    0.30113941273161
C        -1.83746144205419   13.75970934450685    4.66842088648643
C        -1.73663072278565   15.14762498363661    4.63117249789405
H        -1.67874492653248   15.65785068700853    3.67872179272173
C        -1.68897604735345   15.86336611723104    5.81301940852691
H        -1.61545627408279   16.94096048226826    5.78550092865189
C        -1.73125496124383   15.20313980230831    7.03149815096943
H        -1.69402965984647   15.76935664750967    7.95048580649896
C        -1.81157159257577   13.82099169222763    7.07332313972510
H        -1.83411518178582   13.30820740061090    8.02364268596804
C        -1.86246387373418   13.10038942170748    5.89418303215786
H        -1.92499074158114   12.00744761910832    5.91541922068690
C        -3.47149909006243   13.07577395237793    2.34127128327763
C        -3.88686921394584   12.09673436859781    1.44075767366315
H        -3.27629041441044   11.20318419829157    1.31375235776370
C        -5.07028211137979   12.24579195827997    0.74658639411861
H        -5.39436884695275   11.48232147963966    0.05487666764810
C        -5.85074089196950   13.37187953391658    0.95772226206808
H        -6.78280914741430   13.48805346223747    0.42476064653044
C        -5.44850769760524   14.33839530897272    1.86361774045211
H        -6.06819336154906   15.20589028637585    2.03781760262110
C        -4.25988783334372   14.19609498288910    2.55914025796003
H        -3.95989982526705   14.94192672605828    3.28079403978886

