67
CSD_code = JUWFIS | q = 1 | S = 0 | Stoichiometry = C32H30IrN4(1+) | MND = 6
Ir        4.31234724518557    1.53469848937439   15.08237401734108
N         4.25367381694027    0.53555378454940   13.31520222367082
N         4.40953173291182    2.68619702997665   16.74780649923809
N         5.18229195925817   -0.43182000065444   15.93307314204909
H         5.23288880112667   -1.07227845410848   15.14166489320312
H         6.13158976355218   -0.34721612467266   16.28830421494902
N         2.52383454592172    0.32710521719653   16.00703108073908
C         3.25981643923385   -0.24976319409284   12.89952647891925
H         2.42625491657276   -0.37907955055725   13.57583069353621
C         3.25524317269032   -0.88332673828232   11.67287866647751
H         2.42223634759127   -1.50447152072731   11.38756980810323
C         4.33913781880949   -0.69426869167176   10.82469234561692
H         4.36915448517865   -1.16752481691712    9.85594773607224
C         5.37452237675651    0.11561678299242   11.24554106722256
H         6.22399386490958    0.28435913915668   10.60532260936538
C         5.31850997214001    0.72814579982691   12.49830548699208
C         6.33895844075818    1.61446056671154   13.03659969921414
C         7.54194805536757    1.90271166131518   12.39030379363941
H         7.77630790168340    1.45145021304662   11.43863372919758
C         8.44638028136749    2.76859614759304   12.96950119745228
H         9.37575265178313    2.99258429370321   12.46934927255102
C         8.15560091073877    3.35429370856188   14.19156807650524
H         8.85941948080871    4.03845617728140   14.64124285794855
C         6.96325573137924    3.07027586819798   14.83978685715974
H         6.76183139105242    3.55126430912401   15.78620252365934
C         6.03982023490521    2.19715217559824   14.28423648157385
C         4.96326923205779    2.33184142085556   17.90716715903479
H         5.44675169476703    1.36668723344038   17.93960954925991
C         4.96905841766669    3.13431756660058   19.02986208838743
H         5.43250842996562    2.79054221003674   19.94004850871553
C         4.37205628472730    4.38619903058010   18.95304427351290
H         4.34668181825317    5.03883003485490   19.81128579867009
C         3.83240263211092    4.78334770220010   17.74714673719073
H         3.38702957157800    5.75914399683968   17.64932297915825
C         3.87031794720541    3.92695383069426   16.64577789562542
C         3.40276798236057    4.27092736704179   15.31277791033943
C         2.84691981885873    5.50454694165096   14.97055998396481
H         2.70287835435786    6.26887471996281   15.71833832561129
C         2.48067307355807    5.75801215055136   13.66509912070458
H         2.05254810154994    6.71187233903503   13.39924631643969
C         2.67567760126193    4.78818078218082   12.69404037462349
H         2.40269022150065    4.99089793657160   11.66934307847625
C         3.22149617628208    3.55898840431081   13.02900395831606
H         3.36322030806121    2.82836042943141   12.24473426187638
C         3.58275193806446    3.26640053717901   14.33881659434625
C         4.31705123008954   -1.02563051728260   16.95660034282440
H         4.48813117973182   -0.48203440653797   17.89628856970327
C         4.64004494002862   -2.50195082083176   17.19999460923551
H         5.67409023170850   -2.59551871482990   17.53977423877738
H         4.53837429797818   -3.06084014842022   16.26514623792827
C         3.68425792831773   -3.07026681236742   18.23933320984061
H         3.72997153201481   -2.46609937449236   19.14783401338191
H         3.97003763602873   -4.08891691025081   18.50113461835582
C         2.26916812981968   -3.05927824765126   17.67582801662902
H         2.17231843829433   -3.84881156637486   16.92288276207013
H         1.54565642248696   -3.28002298100258   18.46267712726436
C         1.90831876109742   -1.75517662861445   17.02561411977144
C         0.56969726348351   -1.46733805755082   16.77629991366272
H        -0.19329374270569   -2.17227237426004   17.07027923841156
C         0.23172584520243   -0.27934637370549   16.16631459750453
H        -0.80038956654319   -0.02976954892741   15.98102067351449
C         1.23702456849186    0.60540097079011   15.78613958051669
C         2.85404763555743   -0.81512442814087   16.62220408708926
C         0.87844295473416    1.89274253921643   15.12622542511577
H         1.37378381424828    1.98768755047234   14.16252516802511
H         1.20037146553916    2.73160045463087   15.74013977490872
H        -0.19583290841373    1.95916948958219   14.98062330882621

