51
CSD_code = JUWNIY | q = 0 | S = 0 | Stoichiometry = C8H24HgN2O10S6 | MND = 4
Hg        5.12911012961900    5.85730971079674    4.30007769920233
S         4.77475879874130    7.32620908935865    1.22144024465371
S         3.48615056037896    5.25493565160474    2.32595222932633
S         3.38628544537451    8.54542435986479    5.35074367313431
N         4.36611162118613    6.55131836345520    2.58329172867671
O         5.12440183209193    8.67966799673214    1.55697092362010
O         3.69558437610739    7.17818357538076    0.27849634673607
O         3.98546302105737    4.42988242719687    1.26012212130193
O         3.48069823403118    4.58570873535905    3.63025269407901
O         3.76809772432889    7.08977607390002    5.32157407191504
C         6.23325722039385    6.48883918684583    0.58883761188382
C         1.79794721403608    5.73959973587389    1.96895869103282
C         4.74991884114837    9.46785179069691    4.58888679386793
C         3.73867187323427    9.05310001395505    7.08186247520236
H         6.65512438702666    7.09304026040273   -0.20464343492711
H         6.91777647832461    6.38610474925852    1.42252893008514
H         5.89565726511046    5.52759547963616    0.22588042095458
H         1.22506210009474    4.84005883187300    1.78083524328887
H         1.43091102299514    6.26974919145172    2.83711472754891
H         1.84092674514348    6.37535385718957    1.09256186035255
H         4.79208004753058    9.21539839662908    3.52708178561348
H         4.56506278547553   10.53067680386291    4.70936531829099
H         5.67966370240633    9.16862282915669    5.06405659376360
H         2.96171578447552    8.64838055952594    7.72240932835307
H         4.70435028134999    8.63843336117180    7.36100272718495
H         3.73923423498143   10.13466993715786    7.14774051011790
N         5.89200842494448    5.16306878153552    6.01686563341888
O         6.48980597118164    4.62494672121553    3.27819699450440
S         5.48285858733230    4.38804042461280    7.37849936094796
S         6.77138340208833    6.45974743209610    6.27472501824872
S         6.87180531789515    3.16934278350640    3.24879402162495
O         5.13407545992844    3.03439125811486    7.04283145877522
O         6.56135068470712    4.53660335264461    8.32213501135493
C         4.02352120162689    5.22473572750847    8.01005622863472
O         6.27114322327928    7.28463595347186    7.34025106473357
O         6.77731669767221    7.12893674224570    4.97040993627038
C         8.45955885227809    5.97577093335529    6.63278239947720
C         5.50829801874356    2.24675379200338    4.01072507264722
C         6.51818376093783    2.66162081587483    1.51789513102662
H         3.60150287910569    4.62045681766353    8.80339658592643
H         3.33945832412684    5.32690700967947    7.17591168136105
H         4.36033972959858    6.18625130532917    8.37302031855106
H         9.03193051109021    6.87556390850699    6.82127661942557
H         8.82740574556472    5.44576209832475    5.76488583856666
H         8.41627223694591    5.34002504565776    7.50917197259282
H         5.46657838538830    2.49909130946347    5.07257724187983
H         5.69309118202790    1.18393011457410    3.89010304709861
H         4.57829881617323    2.54601132220902    3.53603988828220
H         7.29485178118537    3.06641767344596    0.87706535850126
H         5.55234704596469    3.07625843822044    1.23910858258812
H         6.51769203356374    1.58003927038679    1.45187421829770

