97
CSD_code = JUWSOL | q = 0 | S = 0 | Stoichiometry = C37H56P2PtSi | MND = 4
Pt        5.22947585279608    3.17342663980293   12.29571207797453
H         6.54419703855148    4.02237845411259   12.48536307323681
P         4.30427578685301    4.44662284597921   10.65626552339589
P         5.83567656342586    1.42274884499261   13.61124593928482
Si        3.21545766037745    2.02569626617776   12.16395050382889
C         1.64525253833792    2.32860551261144   13.26360007935486
H         1.85048916599843    2.19322767433534   14.32031551061100
H         0.87928199331752    1.61178801282295   12.98304134076301
H         1.23086536376575    3.32185644245362   13.12818428688987
C         3.70503428189884    6.09441579504959   11.24447797441217
H         4.61987111767008    6.68199869099603   11.40332065060842
C         3.06025720613310    5.84462684693674   12.60688155756615
H         2.16895797491972    5.22672293618433   12.47092727163356
H         3.77083668790070    5.28545808464846   13.23589129145510
C         2.67175183574342    7.16194951782791   13.26623272995059
H         3.57039773143682    7.75461603910968   13.45236873142342
H         2.19024593986433    6.97146134892141   14.22746406903971
C         1.72701032660667    7.94258610881256   12.35524308315308
H         0.80398063793893    7.37359388220300   12.21992562327914
H         1.46670439450513    8.89714577585055   12.81742799639575
C         2.37188780506358    8.18644723790223   10.99345811740311
H         3.26631745898211    8.80121740492701   11.12186328522609
H         1.68067052723979    8.73262490074766   10.34760980388216
C         2.75786824955710    6.86355033901886   10.33248168285308
H         3.23243711297468    7.06029513157462    9.36768180453012
H         1.85640652215184    6.27118319154089   10.15769466655361
C         5.41986306524618    4.74591750069876    9.20554134738973
H         4.85132649106775    5.10236602892961    8.33882833832827
C         6.52512245007664    5.74086500457534    9.54679915816336
H         6.10566715973143    6.74372792824915    9.65845802530201
H         6.97221963654056    5.44855743835139   10.50104444296095
C         7.60246236367972    5.76252690460915    8.46561001690012
H         8.38915214745143    6.46466290732890    8.74987022285845
H         7.16862891174494    6.10996599423015    7.52393615727401
C         8.19106326117906    4.37038465478684    8.26623158080510
H         8.97143203668524    4.39864262988338    7.50280885743465
H         8.64403792205689    4.03412609613405    9.20106899908973
C         7.09216341818866    3.39549516364382    7.85809306040111
H         7.50750163571080    2.39453652524445    7.72274336946642
H         6.66311642964159    3.71146681072584    6.90335904229017
C         5.99998478239702    3.35885297515436    8.91904184004752
H         5.19668921534996    2.68211944159555    8.61127389241529
H         6.41743761889850    2.98000551235551    9.86474365393124
C         2.89941758324000    3.59069779043360    9.85864817726595
C         2.32284072999188    4.04451222635886    8.67701963096429
H         2.66602999610217    4.95621952313724    8.20863441324394
C         1.29896551793099    3.32755089931121    8.08483359806315
H         0.85257228683523    3.68362616024118    7.16702342213115
C         0.85109742261138    2.15276710064148    8.66667782557048
H         0.05420714484209    1.58983067190943    8.20105488693446
C         1.42422381163716    1.70678825997889    9.84431100741471
H         1.06786180330793    0.79298490295929   10.29660391990178
C         2.45051171772831    2.40937053348575   10.45200553550865
C         3.54685547953462    0.20725495028903   12.66083191199533
C         2.69201861668929   -0.86110160080959   12.45031236674655
H         1.79985920281292   -0.71723887383474   11.85857462936910
C         2.96242124906483   -2.10947058266228   12.98184752733356
H         2.28760321937082   -2.93520863109466   12.80413879221884
C         4.10088565352093   -2.30000975213132   13.74810291899581
H         4.31546157980797   -3.27206323095735   14.16947185463400
C         4.96757618316645   -1.24534503733367   13.97015214714420
H         5.85620151911270   -1.40935088674858   14.56325124905874
C         4.69327215095421    0.00745333029618   13.43143203049556
C         7.44666722702331    0.63095297690345   13.14812988286656
H         7.56810487793953   -0.33683971908202   13.64855035593250
C         7.31098061104224    0.42917946647126   11.63669575740366
H         7.01997959775655    1.39794057855239   11.20221739450270
H         6.50543256583584   -0.28276182906566   11.43254612453615
C         8.60754000236991   -0.05057653059703   10.99759725763053
H         8.85631863430243   -1.04376793073487   11.38107494590038
H         8.47612784585547   -0.13335671039939    9.91659726410217
C         9.74337395084477    0.91427616443029   11.31828034461065
H         9.50997878717401    1.89730968757181   10.90446972259666
H        10.67226169861096    0.56653067277594   10.86143786425746
C         9.91358205955165    1.03072103886926   12.82884798143172
H        10.16827660194376    0.05031562295217   13.24059533892895
H        10.73307074253643    1.71384364670972   13.06194414562334
C         8.62800788301474    1.53895309663165   13.47598381986734
H         8.40595404463905    2.54337428719949   13.10500967184720
H         8.76598877134580    1.59768079334162   14.55849304743559
C         5.91575754618969    1.87505774378594   15.40241139219335
H         6.84032215525798    2.46108481570219   15.49979025137324
C         5.92115988422581    0.74247337411902   16.42098623807589
H         6.78365194603033    0.09005571725068   16.26189949956887
H         5.01278999414122    0.14527877825221   16.30955231880993
C         5.97288039411673    1.32395956663696   17.83358738059468
H         5.96058500351602    0.51335269391225   18.56561370942356
H         6.90633572135350    1.87739415047399   17.96295567279682
C         4.79272812855648    2.26089208076859   18.07687101273867
H         4.85066068618282    2.67412396623763   19.08597368158860
H         3.86139998827695    1.69467739002791   18.00012740731416
C         4.78186815000241    3.39091760390310   17.04997933445660
H         5.68535371285870    3.99446251576177   17.16335815551550
H         3.92082202058776    4.04064551736605   17.21885181066768
C         4.73213309376014    2.81251960238731   15.64160323878589
H         3.80190024236152    2.25386869907795   15.50716768691598
H         4.76154624283556    3.61562927628110   14.88649176495398

