43
CSD_code = JUWSOJ | q = 0 | S = 0 | Stoichiometry = C10H28B2N2Ti | MND = 7
Ti        3.71555206819541    3.75666034872347    3.39846471235634
N         5.08785708610160    4.93432352883830    3.92350605141170
N         5.06133391274069    2.83289551821623    2.45670142329293
C         6.04216318337913    4.86992144497274    2.95020554928365
C         6.03306066333443    3.74877872956116    2.17375726039484
C         5.18415297966981    5.97686704689183    4.93326272116804
C         4.06766876653475    5.75176508794664    5.96485237248556
C         6.53952683524524    5.89193997279903    5.65826935956127
C         5.00327853243113    7.36435525848594    4.29118411364550
C         5.08967545422624    1.54403678366087    1.78492891839295
C         6.36955851113122    0.78111050046096    2.16879958772306
C         3.86970690817168    0.73990541291573    2.25881136646992
C         5.00626530594298    1.71708025553802    0.25641824907922
B         2.44942198829220    5.12019136963202    1.98283493869392
B         2.44551482539586    2.51846501033472    5.00473128289276
H         6.78855496796498    5.64894628860431    2.82850094194145
H         6.76687590658355    3.58118268001812    1.39146947557395
H         3.08739230351553    5.77327697689836    5.47975553169553
H         4.20049052096948    4.78723046015672    6.45912110189512
H         4.09588967396654    6.53554705105345    6.71962327853264
H         7.35975361929667    6.14069577755410    4.98990971731214
H         6.69125757784990    4.87785268731761    6.02655895146470
H         6.56071510490333    6.58103787776829    6.49889021050333
H         5.82270283861569    7.58783996040911    3.61176502436069
H         4.07161722614764    7.38719649993328    3.72547279648547
H         4.97390594627274    8.13500800842136    5.05787461132472
H         6.43332148201771    0.70272390710244    3.25346255368022
H         7.25377681435725    1.30252936192794    1.81041570912254
H         6.35888609997025   -0.21794004323185    1.74014751422102
H         2.94408758699632    1.25921733548622    1.99029049286832
H         3.90476889378375    0.60701576636208    3.34183201878972
H         3.86320297675130   -0.24128200911828    1.78754944765663
H         4.15568399012279    2.35197156014829    0.00330420900833
H         5.90827004080304    2.17839633661206   -0.13826767791101
H         4.88060279164956    0.74980497696033   -0.22428365532005
H         2.92977335096528    3.94567787905884    1.72143595067823
H         2.48205476156008    5.23476441877358    3.25338694035957
H         3.14536378161509    5.94791723714443    1.47018977819829
H         1.32237068174451    5.14664474623034    1.61202552307218
H         1.90703038153238    2.74847757965272    3.90636269022351
H         2.00714259223137    3.22153967896679    5.86332237140401
H         3.75557468312863    2.81652058113058    4.85097069575276
H         2.39729638389022    1.36411014967676    5.27778589025028

