48
CSD_code = JUXFEN | q = 0 | S = 0 | Stoichiometry = C18H26CoNOS | MND = 8
Co       -1.54545401102661    7.38905142062625   10.28183151290966
S        -3.64145165604263    7.51452061064893   11.08657280714783
N        -3.82237783935246    8.53908940471674    7.61061605225014
O        -0.79073776913709    4.70697002225292   11.03654006584986
C        -3.61851441714475    7.76959418709164    8.44596280931757
C        -3.36631823955017    6.86606148658871    9.49166550698748
C        -3.69768125288232    5.40641972160504    9.24385211850404
H        -3.02856681613168    5.00594534807608    8.47593823710877
H        -3.51143442063780    4.86975328027582   10.17781569984786
C        -5.15863618780608    5.10702931803261    8.81249576946403
C        -5.40046994105766    3.61412400726653    9.06169907700458
H        -6.39006296901485    3.33035180313588    8.71138277876972
H        -5.33561396462273    3.38438699823004   10.12293139227393
H        -4.66496793448027    3.01167022290176    8.53247452808061
C        -6.15258304772938    5.92180522453733    9.63889059620096
H        -5.96092712566338    5.79997623965479   10.70287499394415
H        -7.16788572390795    5.59178731103317    9.43120093641769
H        -6.08514182059311    6.98050249906053    9.39890885023472
C        -5.35985332703203    5.39449186736905    7.32386097160402
H        -5.18874894342872    6.44235945122641    7.09685135690188
H        -6.37905067590421    5.14837976184002    7.03403965061109
H        -4.67980869158573    4.79543402102830    6.72102928293337
C        -1.14513247626835    5.74665914394228   10.71028761879070
C         0.29054744356773    7.93304964035374    9.46775024112181
C         0.27127459521016    8.16965491174187   10.90327826606160
C        -0.72634655348898    9.13646990493591   11.16747596061026
C        -1.34395402943753    9.47451427368444    9.91728069165606
C        -0.65427953926002    8.80675183475579    8.86405688942465
C         1.35729693410612    7.16450029727539    8.75218387250339
H         1.69770793181117    6.31630462700546    9.34143754047807
H         2.21313837081014    7.81828335162792    8.57320134025379
H         1.00274730413100    6.79563665537762    7.79267664784421
C         1.31212612460080    7.68565985757153   11.86398808837068
H         1.66217437130887    6.68879986168781   11.60627052393714
H         0.92935162526580    7.66343713529932   12.88139400556322
H         2.16792664806209    8.36280445530442   11.83534492629833
C        -0.98231091707275    9.83308380721657   12.46465500004242
H        -2.03777450594008   10.06825303032024   12.57959739037928
H        -0.42027237863900   10.76891400869942   12.48727024928204
H        -0.67009834332338    9.22441720250622   13.30950982674072
C        -2.33092234597590   10.58155008271808    9.74023386986279
H        -3.09047801936148   10.55580356626770   10.51943806705203
H        -2.82505152149224   10.51388782290024    8.77488222507843
H        -1.81198581236948   11.53990076040332    9.80164433031985
C        -0.78272016933148    9.12442331616331    7.41315210925755
H        -1.82616612482603    9.09902512509317    7.09166541739093
H        -0.21364718544863    8.42628449986378    6.80514292603268
H        -0.40806465189630   10.13272662006108    7.23234698129057

