66
CSD_code = JUXHOB | q = 0 | S = 0 | Stoichiometry = C32H22ClN5NiO4S | MND = 6
Ni       -0.04985511294589    3.47080376321649    8.94424977411431
C         2.10684280756189    4.81582757685861   11.83067180971386
C         2.23067535224196    6.10432141014447   12.31376071329940
H         2.65608239681726    6.85319133780946   11.66472317032202
C         1.80586355016144    6.41504483692336   13.59381724493752
H         1.89339475476702    7.41856757273397   13.98040694085759
C         1.26772906877892    5.40886796891779   14.38022942599554
C         1.15623276445776    4.10898024723123   13.91239963117736
H         0.74548462136126    3.33854508112234   14.54661603078480
C         1.57767811783837    3.81688368609701   12.62543275141063
H         1.48238421175226    2.81359626466473   12.24155918782053
C         2.26081010746050    2.00077073997954    9.65207841214239
H         2.75547707455121    1.84957749657724   10.61731521373300
H         2.99536502603215    1.73616388605517    8.87735394454291
C         1.05079261746894    1.07046706744339    9.52303424381947
C        -1.63127679354367    3.26609542312342   11.87951245522030
H        -1.78111998456038    2.20961959956517   11.69980133643229
C        -1.97092573333396    3.84529783792439   13.10670361831546
H        -2.38337310717318    3.23387182613064   13.89387060825149
C        -1.78744750959951    5.19622072272776   13.28213095552005
H        -2.05101652535449    5.68193518630543   14.21034399595691
C        -1.24334751356820    5.95457204357225   12.23271251305108
C        -1.00914514455280    7.35569894125635   12.31705809895946
H        -1.25207700971019    7.85843280524303   13.24151559077976
C        -0.49357063763472    8.03660658690175   11.26587227350830
H        -0.31865397976388    9.10049162640848   11.33090876620586
C        -0.15438688597811    7.38031686993978   10.04693516001599
C         0.39142444590298    8.05624986649661    8.94555952482157
H         0.57360465275368    9.11913699650177    9.00543686490042
C         0.69637559806192    7.34003112960965    7.81509614813413
H         1.12446058045034    7.82080445686270    6.95014942910511
C         0.48782354576732    5.96069215200196    7.80033264981576
H         0.74963114470211    5.37628973955605    6.92955992569845
C        -0.35285461878441    5.98821398866650    9.93211942052318
C        -0.91897857506511    5.27380088678661   11.03945653584925
C         1.83215578066535    2.73407399943230    6.32450789997703
H         2.58923575444722    3.41717719610974    6.68885949166948
C         2.16086018979519    1.70978871521041    5.42681005866303
H         3.18443033840648    1.58056914728113    5.11159020187085
C         1.16372785638635    0.89742133734074    4.94648141544346
H         1.37195213133227    0.11423078567505    4.23174213065089
C        -0.15324225590737    1.09089976537447    5.40062426850066
C        -1.25875157440295    0.31355209774306    4.95233976993333
H        -1.07648837371417   -0.45993978093428    4.22058547849375
C        -2.50558337749898    0.53295895934590    5.43431311209841
H        -3.34388020562829   -0.05420654056389    5.08882848266032
C        -2.74589967936350    1.51507828568505    6.43832205024474
C        -4.01256940387954    1.73059449293146    7.00456418493933
H        -4.85812552506352    1.15150005365056    6.66254194799131
C        -4.14628258640694    2.67521604717055    7.99175946104600
H        -5.10376631525366    2.87522098735802    8.44681158904355
C        -3.01501975066775    3.37163789182163    8.42718708938433
H        -3.10741710486982    4.10981166019973    9.21280998483473
C        -1.67040191992696    2.28858743349513    6.92689259703079
C        -0.36342386611842    2.10548585649509    6.35631680699704
O         4.07310143246545    3.97644823305866   10.35122891451395
O         2.61001993632592    5.74382441122287    9.46560939873082
O        -0.05472619487480    1.67432488895868    9.26945428768309
O         1.13764033907077   -0.13689996534204    9.64675026651564
S         2.73415719674100    4.47713840339528   10.15841112580942
Cl        0.70452012189471    5.78640990594763   15.97018953865614
N         1.80907551468637    3.37012923048908    9.47876487924753
N        -1.13343367940711    3.95415851968358   10.87599604485609
N        -0.01822722231574    5.29854908751370    8.82074795906655
N         0.61393418242266    2.92609905329751    6.78059663412924
N        -1.81107504666624    3.18037221959544    7.92923856358674

