58
CSD_code = JUXMUK | q = 0 | S = 0 | Stoichiometry = C18H30Cl3O6Y | MND = 6
Y         3.10563152527596    4.36978769888202    2.08234329775997
Cl        1.97336283852204    2.50407509302459    3.21962767617310
Cl        2.85932550096420    6.10416348102384    3.81974674820774
Cl        4.17589394458524    3.04978684017525    0.28010403031387
O         4.88628892774982    3.56527515568297    3.25469354890349
O         6.66132103138431    3.10376914716324    2.09650133020512
O         3.45222787443158    6.30459997026029    0.74629811516853
O         5.32068410536931    5.96122845378085    1.78123975106526
O         1.02146245977783    4.78458569683282    1.37111471577272
O        -0.71158079703793    3.49623854634849    1.56455026432995
C         5.55627143546770    2.69837460969415    2.68783362267797
C         5.19332098972867    1.24287435998092    2.76805720936725
C         6.29479371144581    0.37854290497915    3.39189278476127
C         7.38679377306092   -0.00806585871851    2.39830013534012
C         8.20980629342336    1.18820597316022    1.92982452393129
C         7.37943006463597    2.24609549261040    1.20956271898007
C         4.48229739064832    6.79519355985591    1.18459692190630
C         4.77924227207564    8.25914165117325    1.08461242841480
C         4.68058514345588    8.91752875583387    2.47243422728718
C         5.94915775300002    8.74115923661724    3.30130997328189
C         6.22477471932511    7.28027360771078    3.64871085380046
C         6.51706131570266    6.41755229146459    2.42568515308842
C        -0.02613727527061    4.53488658719596    1.97043006865475
C        -0.51532904588615    5.42055407639072    3.08192451735993
C        -0.44755801032343    4.73911513318897    4.45824608618505
C        -1.57956389368986    3.74487717061239    4.68986155009825
C        -1.55885600825827    2.59187184695174    3.68929641009609
C        -1.86786113382616    3.03692091080738    2.26257586769062
H         4.95758559464385    0.88477001135972    1.76316675878165
H         4.28032149045588    1.18209063490028    3.36636910955926
H         5.82782377241501   -0.53280928848080    3.76810022827107
H         6.73345368672790    0.90050408973178    4.24530593237063
H         6.92962889772195   -0.49145042768064    1.53243931377474
H         8.05591791913168   -0.73188549151640    2.86818454370858
H         8.98334207911312    0.84320831592505    1.24192178902296
H         8.70421571629648    1.65607117707708    2.78416408739419
H         8.03527758667530    2.93143617482143    0.66701791551255
H         6.67126831170746    1.80348534683130    0.50204725301011
H         4.03160961269020    8.68642643093101    0.41600747217511
H         5.77184723875376    8.42178875574940    0.65883270701723
H         3.83363526171600    8.48862372796578    3.01231882132397
H         4.49351638414966    9.98271966392616    2.32958767720299
H         5.83561482792296    9.30248388686751    4.22948382726810
H         6.80509887278317    9.15941957909349    2.76275828215821
H         5.35978932140009    6.85792835742706    4.16633462306504
H         7.08416169976005    7.22464877803418    4.31803476938497
H         7.14554435192381    6.94610371456318    1.69938681926538
H         7.01095722663237    5.48883299034126    2.71925158199066
H        -1.54187011532713    5.73491000088543    2.87286718371451
H         0.13434360007412    6.29935566449080    3.09262057954255
H        -0.48999331820912    5.52013810225846    5.21858307135368
H         0.51369276730905    4.23074730979018    4.55939519811661
H        -2.54305198735347    4.26144157079734    4.63562881363861
H        -1.47949257389391    3.33582716848138    5.69591764972145
H        -2.29957895916113    1.84644688249199    3.98142977352839
H        -0.57248038069468    2.12213882620297    3.69505029168803
H        -2.20360553803537    2.18924380483844    1.66160226884042
H        -2.64392025319136    3.81214184904414    2.24761712657485

