65
CSD_code = JUXPAV | q = 0 | S = 0 | Stoichiometry = C34H27FeN3 | MND = 7
Fe        5.26853226072002    7.55682249389929    6.99268837365656
N         5.71679943027591    7.22486509681160    8.78002273707543
N         6.15507701690763    9.17403132675597    7.36013554476130
N         3.54955013075036    8.00840351424104    7.46195528425574
C         7.32381775331741    9.85456328962355    5.36179751314740
C         4.53916335392572    5.59820874073885    6.76518950540135
H         4.02615145303326    5.46873285123452    5.81427319546938
C         7.82444654286706    4.04156124131760    7.31223250562192
H         8.03877700639914    3.94481500216612    6.25715626733290
C         6.44269174127572    9.36704841256576    8.63623430108959
H         6.82200483165761   10.31107246199414    9.01174413179353
C         4.15100923626369    5.38643411592657    9.22836087905418
C         3.72876382512699    5.20163859678046    7.90405904539574
C         5.49818052526892    6.00038606759794    9.51375775782646
H         5.58470469594680    6.18919338150323   10.59453674516789
C         5.08051205544105   10.70602876190929    5.79733678926492
C         7.09162083536707    8.63767622577471    4.71350208490489
C         4.24993119628910    9.74936668346368    5.20098733549748
C         6.77839077189761    4.87245048468061    7.72110375515275
C         9.14610717820458    8.96351278032220    3.47447559593485
H         9.86102134234384    8.60696497451474    2.74708196689154
C         6.54313984328558    4.99816534853315    9.09249172205699
C         2.45380449438752    4.66996385670978    7.69066723172983
H         2.10914971741990    4.53611779450806    6.67469393356792
C         3.33031224790806    5.00863710587298   10.27793054501587
H         3.66959811659898    5.14881267563035   11.29533954561762
C         5.95138616370670    5.52578781472430    6.71737590507694
H         6.37083567984727    5.38784975458924    5.72687933456683
C         7.28334987050166    4.27657698338813   10.01041628386211
H         7.07848127637497    4.38349210900701   11.06675847490447
C         5.90074414450316    7.83636098877700    4.94242550863545
H         5.94206540590399    6.88883597040265    4.41338222314768
C         9.34107034904788   10.18597040490358    4.09606207551315
H        10.20569645549956   10.78769424872817    3.85858782755018
C         6.37072227096636   10.27458331785713    6.45032476038580
H         6.79661762474932   11.13291019355258    6.99258721368225
C         8.43014043759485   10.62186549923451    5.04295525020737
H         8.59012534624467   11.56378788198844    5.54935207815175
C         2.07556992714830    4.47159861046456   10.04560547172549
H         1.44331930672380    4.19174216753546   10.87539776122674
C         6.20783040670368    8.26246183387378    9.43354474110250
H         6.40363746820365    8.23472687113980   10.49946717155183
C         4.60156358450060    8.34106365607246    5.12276695748617
H         3.79712652691589    7.72849857252763    4.72302638696386
C         3.02989165834640   10.17716831571005    4.67015399503122
H         2.37214355157274    9.44561715036379    4.22138294110250
C         4.70841469642741   12.04019453096466    5.80732690252590
H         5.36207644104076   12.77151102546652    6.26267711924423
C         2.65940572360086   11.50598845035739    4.69546556474516
H         1.71224616632487   11.81171802761894    4.27444095050072
C         2.53403119383799    8.26101488535018    7.94084459481752
C         8.03668980671808    8.20175622357885    3.78061279088104
H         7.88351286473093    7.25565575876985    3.28038909608578
C         1.63599015914119    4.30966610124893    8.74198381012256
H         0.65484904373888    3.89958520895328    8.54833731465991
C         8.29640647716374    3.43453139942684    9.58333459149278
H         8.87792638925323    2.87806645086827   10.30327195591588
C         3.50575437794370   12.44787569978776    5.25692062086200
H         3.22575842016057   13.49062473762718    5.27825514688550
C         8.57350230830307    3.33225682773953    8.22998453873995
H         9.37591139653783    2.69326632832219    7.89046655260235
C         1.25037025635741    8.54486703348530    8.51362291745713
H         0.56728721393382    8.88888820074619    7.73730923633487
H         1.34707252841655    9.32001018805546    9.27328621314463
H         0.85271947844261    7.63855729172852    8.97136342841736

