33
CSD_code = JUXRUP | q = -1 | S = 0 | Stoichiometry = C11H17S4Ti(1-) | MND = 9
Ti        0.45070434795295   12.79316316087761    0.64798394443637
S         1.37886301812157   12.51195161018706   -1.49971158078023
S        -1.41302730550171   11.39971817372581   -0.09502259244075
S        -1.43182659820008   14.18476173538195    0.92465381534966
S         1.74710597389613   14.83314221610451    0.32736316353616
C         0.98771738763622   12.75991120586430    2.93433299675683
C         0.17505054554316   11.64160275894141    2.67742838661665
C         0.88355054044963   10.77913198694089    1.81264561540810
C         2.13059332641851   11.36608778135439    1.53338224767425
C         2.19992662172697   12.58596891041622    2.23376446463053
C         0.61048787927690   11.03756180704780   -2.25897453678967
C        -0.78517750125094   11.33218180442424   -2.80031994632678
C        -1.65112763634685   12.06260482199456   -1.77382924823409
C        -0.86216700665049   15.87711565731861    1.31512868546439
C        -0.36899992325595   16.61784854765174    0.07605258655860
C         0.60757707453365   15.77074321805973   -0.74005724570429
H         0.76009540761948   13.57188895453445    3.61724297775307
H        -0.80077818887306   11.44345210135254    3.10674394602270
H         0.54443198680438    9.80447449390505    1.48286367159625
H         2.93209200405401   10.92367094234377    0.95146932430795
H         3.05906638483996   13.24400627462677    2.27897805205741
H         1.27542188714055   10.71385289950931   -3.06414033002108
H         0.55954199846451   10.25966905265431   -1.49185971053260
H        -0.70603986988283   11.95156682683055   -3.69941661761759
H        -1.25980988884390   10.38303488336510   -3.06913843137360
H        -2.71117945603200   11.96092564676574   -2.01982757992026
H        -1.39569890438824   13.12905720258412   -1.73272827021655
H        -1.71105288403311   16.39885904126270    1.76477345211509
H        -0.05364584024282   15.79434351491996    2.04677162288741
H        -1.22151530936493   16.88202528866848   -0.55779601000465
H         0.12663390811796   17.53928455677195    0.39831630476253
H         1.21506562925073   16.40231797123389   -1.39341284010302
H         0.07132039101868   15.03557495238043   -1.35316031786962

