32
CSD_code = JUXREZ | q = 0 | S = 0 | Stoichiometry = C14H14S3Ti | MND = 8
Ti        5.02298384082347    2.61019531864998    9.22312338579833
S         2.92109136700370    3.04666320940935    9.99908225103042
S         5.89486828233102    4.70671571676909    9.50052501788350
S         4.40041421354393    2.58747785538808    7.00423530039834
C         6.96697816691672    1.45693163006652    9.62917415706058
C         6.47923505044168    1.91158377980705   10.87666433259640
C         5.23717093989795    1.28472426402382   11.11297912137466
C         4.94965560480089    0.45186995675673   10.00865757013688
C         6.02258800728179    0.55341496265333    9.09393015608662
C         4.64886952640614    5.73170659004003    8.63726809004620
C         3.29468961735714    5.74933303856032    9.33995894907988
C         2.42760380669966    4.52818654907652    9.05194964856070
C         5.96541682224570    2.16552181865415    6.30795905535722
C         5.99183622566559    1.07509710924801    5.40361261551736
C         7.26748162400914    0.89860097301302    4.97723509910094
C         8.30000403121951    1.57004448620684    5.28738612892374
C         8.38035678325920    2.63687700359120    6.13080287218644
C         7.10451996337468    2.91418916132745    6.64572679964348
H         7.94337548373564    1.67675449774417    9.21375050545434
H         7.01492383489732    2.54830021747953   11.57166024696128
H         4.64146764137725    1.36921031680948   12.01365109262950
H         4.10170535939005   -0.21836452039395    9.92481205992254
H         6.15581327310164   -0.04715625256763    8.20134959422279
H         5.07385496826534    6.73787800064727    8.62808151613489
H         4.55773533946557    5.36796499779061    7.60671069157957
H         3.44855387836377    5.83876349076620   10.42118918789879
H         2.75004294728520    6.63545945053788    8.99904260062476
H         2.43745661401989    4.27041696386837    7.98705413833402
H         1.39907248344327    4.72531203399457    9.36122584911453
H         5.10369649375960    0.52270108655681    5.14441914187064
H         9.25451837223375    3.21278994221179    6.38463596819707
H         6.99021943738256    3.76083635131355    7.32054685627339

