23
CSD_code = JUXRAV | q = 0 | S = 0 | Stoichiometry = C8H11ClS2Ti | MND = 8
Ti        4.20017620990470    2.57985850367937    2.36230896000681
Cl        5.34540921693969    4.38651990461950    2.22804456849793
S         5.86243835791217    1.02378956734763    2.19706156042207
S         3.85315739435740    2.48082358619231    4.61746326113380
C         2.17003168914277    3.30063052101206    1.58966327236774
C         3.00571519179014    3.09226183138582    0.47056554925011
C         3.33013844672445    1.71791587848157    0.41730834245440
C         2.68978359106555    1.07492699871279    1.50250490733901
C         1.96650557214567    2.05042247584430    2.22161225174685
C         7.04387128270137    1.64905867342224    3.44487865001823
C         6.50380770704328    1.58928654398900    4.87111019220472
C         5.55688662547385    2.72941303515835    5.23513413053316
H         1.68260583521020    4.23154300033911    1.85715745574244
H         3.27404556519017    3.83629479861037   -0.27036675595071
H         3.88911329373310    1.22442340900906   -0.36941811641167
H         2.67085469458964    0.00684740858036    1.68324930932963
H         1.29630183013671    1.86120587832417    3.05192494447339
H         7.91680861910800    0.99875078781463    3.35475064131684
H         7.32488195479316    2.66920173190572    3.16283961092392
H         5.99175644259345    0.63241759669954    5.02310706450662
H         7.35749470904385    1.63055469687417    5.55491768625105
H         5.91823193471344    3.69059751420981    4.85484301178787
H         5.45408383568892    2.78925565778952    6.32083950205596

