33
CSD_code = JUXSAW | q = -1 | S = 0 | Stoichiometry = C11H17S4Ti(1-) | MND = 9
Ti       27.99705373147646    2.10702353347333    8.87842431660207
S        28.00396226630880    0.80253828765413   10.94121837871698
S        29.61359802897404    0.59801118550827    8.06170955249337
S        28.60878312581830    3.68378112934718   10.51925295025118
S        29.27453660799235    3.44347061663647    7.28661785744187
C        25.68546725410900    1.94696526377137    9.30826053838612
C        26.03679423434885    0.88583000770275    8.44541190342652
C        26.45325758801479    1.43875757871872    7.22175769382334
C        26.35595075163175    2.84181290557938    7.32626595776146
C        25.89106261211188    3.15540517931969    8.61845939724180
C        29.79162720020666    0.51131299530885   11.12875702329205
C        30.23749455524306   -0.76401717429096   10.41371055704687
C        29.54509887365721   -0.92889473004919    9.06424596854215
C        29.12291281560402    5.22118019980687    9.67483382576673
C        30.53551917023706    5.11947015065709    9.10765963018861
C        30.73361410798483    3.83440996151314    8.30364819133017
H        25.27857297521641    1.84106296219014   10.30711039601526
H        25.92944579404675   -0.16937401562990    8.67061926520943
H        26.73224543989788    0.88902556411330    6.32920391500327
H        26.54020204328597    3.54751835801367    6.52569147594836
H        25.65017715816619    4.14720712869831    8.98737707081702
H        30.30018624160970    1.39153614606605   10.71547800856239
H        30.00374604536787    0.44943465429825   12.19914797869446
H        31.32189066202091   -0.72613013401516   10.26825606876539
H        29.99694122095427   -1.63336819727937   11.03426416647101
H        28.49118110725930   -1.17992949637562    9.21238237631088
H        30.02848136043109   -1.71367378661502    8.47632393226442
H        28.40831135937839    5.41050091210778    8.86881022821476
H        29.06161755305677    6.02363767592386   10.41481798153082
H        30.71227371441060    5.98537293380349    8.46159194822915
H        31.26180917960580    5.13891927053816    9.92644118249542
H        30.89620346511080    2.97663824828430    8.96829410955361
H        31.58838175646281    3.92756468522061    7.62905615360323

