108
CSD_code = JUXTUT | q = 0 | S = 0 | Stoichiometry = C46H58NiP2Si | MND = 4
C         2.48707811520303    1.58017239472439    4.51161966918864
C         2.26367733954664    0.09717050315483    4.36927530322253
C         0.97326921772099   -0.41048349712713    4.50576822127181
C         0.69485790416990   -1.76221013752560    4.34351737610380
H        -0.31695085947901   -2.12657462651936    4.45994848796796
C         1.71767489165338   -2.63642191732349    4.03522977579359
H         1.51444916517114   -3.68969244131321    3.90600415394193
C         3.00905020501276   -2.15105250570390    3.89012091781839
H         3.81206969353305   -2.82832097463600    3.63660485961456
C         3.27880170646321   -0.80613309759642    4.04764801249718
H         4.28816802920938   -0.45431362641709    3.89487626469499
C        -1.72365131716546    0.48303459510333    3.90082535798281
H        -2.21229825685496   -0.41771772568603    4.29426513991503
C        -1.27209990876617    0.23828417374138    2.46326995481617
H        -2.13824632943070    0.08729882524147    1.82003155643763
H        -0.63450698041197   -0.64013153991499    2.39011132534086
H        -0.71946232396818    1.10084565891098    2.09184175482731
C        -2.70146353553687    1.65339534959073    3.93731952172533
H        -2.21035667115394    2.55042766822738    3.56525887831856
H        -3.04919996380739    1.85527295133545    4.94640285564025
H        -3.56545970011766    1.44239620659873    3.30846837226781
C        -0.71526834855329    0.15827979708122    6.65517738453436
H        -1.05160517064842   -0.87642120595292    6.50959552885351
C         0.55858513113135    0.16937310866242    7.49783081218874
H         1.01470493427383    1.16029519510694    7.46017757452687
H         1.28245770371284   -0.55058033865001    7.12026249604744
H         0.34032440098599   -0.07229750948963    8.53678679866263
C        -1.81726454518738    0.96751710058478    7.32682564123204
H        -1.92371086463831    0.66524719950247    8.36780460721353
H        -2.77442516481336    0.81656636171284    6.83336751846768
H        -1.56881489549297    2.02798643951477    7.29768087178255
C         3.51252754115558    1.93384694460322    5.53214251657238
C         3.65487649126481    3.29007830188925    5.89717762413784
C         4.70693646853530    3.71383115241613    6.69248972620586
H         4.81844885789100    4.75899168289387    6.94187341123698
C         5.59929792311600    2.79479379941925    7.21697315808625
H         6.41963011288294    3.12382392531363    7.83777412880814
C         5.37597208987129    1.44506386166576    7.00114123349015
H         6.01070600023394    0.71117546198887    7.47827015341068
C         4.35230535633429    1.02011883065609    6.17524215136663
H         4.20128747845627   -0.04109095350157    6.04852128517334
C         2.64642183110491    5.63948249726199    4.35558809270524
H         2.99795249447518    5.07883957675608    3.48272395348224
C         1.43238812102913    6.45677517652525    3.91405665486331
H         1.22080711077260    7.26338448831698    4.61025772607689
H         0.55041880435634    5.82289802656838    3.84065664206417
H         1.61830016216444    6.89819138908996    2.93616652013097
C         3.78942246349066    6.52701184774195    4.83058243565650
H         4.01624449062958    7.26451282727679    4.06151888850124
H         4.68784817248930    5.93850938547112    5.00116289486092
H         3.52911155295940    7.06005662424346    5.74295100641849
C         1.90232924195695    5.07293385378707    7.20599496959004
H         2.82622307353407    5.58354448308266    7.49837007801844
C         1.60639261949109    3.94996157955016    8.19547044658045
H         1.40663798357271    4.35088177448434    9.18801732683272
H         2.44312294979579    3.25644354882644    8.26550721291525
H         0.72335874894137    3.40336919030540    7.85695072101449
C         0.74533252047608    6.06454708994487    7.18866041130264
H        -0.11118059341213    5.62700591448949    6.67665448954015
H         1.01812725364057    6.99006386884804    6.69035751339119
H         0.44759396259684    6.30683270580197    8.20801842897373
C         4.61518677514768    3.29251117706584    2.75620056152998
C         4.67887973006249    4.41349581547393    1.93268176256374
H         3.83670031982947    4.65537469407250    1.29929720257870
C         5.79467208980649    5.22674151979770    1.91002928452098
H         5.81396207977283    6.09503772611163    1.26532783099587
C         6.89675886227426    4.94587554338368    2.70948392939517
C         8.10246310342184    5.83532850293532    2.68039611151671
H         8.65154991413062    5.69323188860926    1.74906155560317
H         8.77109664767385    5.61316541296666    3.50865003452780
H         7.80835026256054    6.88223070792176    2.73588840653857
C         6.85178347608423    3.81531172555884    3.51269814289120
H         7.70083896421309    3.56626321148313    4.13469388011393
C         5.73255396224660    3.00286422331746    3.53027873304303
H         5.73371496009270    2.12856969448455    4.16386785953758
C         1.72059831422572    2.98587803917283    1.71270261613829
C         1.89225647444020    3.12905437547904    0.33766305538694
H         2.80055064123783    2.76437627283339   -0.12135632849221
C         0.91948505622779    3.71591623345470   -0.44692171235409
H         1.07618418134941    3.81600544053807   -1.51244043124798
C        -0.26603843686739    4.17915691355972    0.11425102123169
C        -1.30976919433407    4.83145769852515   -0.74031088833318
H        -2.26818285428057    4.86317876933751   -0.22754821892289
H        -1.42897644288154    4.29516096052056   -1.67993525966012
H        -1.01477556336493    5.85480589852596   -0.97539557329872
C        -0.44839130345337    4.03008730431810    1.48197147009082
H        -1.36518264402516    4.37788386464316    1.93844185179262
C         0.53072589473825    3.44025299517418    2.26113605066066
H         0.35937242449687    3.32132078155514    3.34979749733498
C         3.56570033615987    0.69161057394189    1.64474271149514
C         4.88575938524136    0.40580806858946    1.32009538131373
H         5.67440900121897    1.04281032819599    1.69622866457568
C         5.21045980249920   -0.68032264251827    0.52896984402418
H         6.24719253190519   -0.88410755385706    0.29635724660346
C         4.22122417522642   -1.51894627922622    0.03251193886739
C         4.56989687975558   -2.69187607543775   -0.83321110672579
H         3.84735851586711   -3.49547577252207   -0.70633563788887
H         5.56329707881411   -3.06782828740116   -0.59727591402633
H         4.56253781447722   -2.39572529126645   -1.88335148653294
C         2.89747716690900   -1.22826318525614    0.33862938696184
H         2.11029817553788   -1.86422640826809   -0.04326158655346
C         2.57934830551088   -0.14139550644357    1.12797976805210
H         1.54326035450058    0.06609145459801    1.35317162225477
Ni        0.80051070936290    2.69884777603695    4.99226701907158
P        -0.24636071082840    0.83952968533780    4.98478733902815
P         2.17398100721943    4.27586705864652    5.53764322944895
Si        3.08587905202268    2.16165392739488    2.75070402800933
H        -0.39132216182528    3.44201949793308    5.47774831218372

