77
CSD_code = JUXVIJ | q = 0 | S = 0 | Stoichiometry = C31H42NiOP2 | MND = 4
C        14.15814161207671    6.74322148547905   12.66324552111518
H        15.01289168370325    7.44213797157072   12.65599928048169
C        14.69741472811010    5.41178309314546   13.10870857962570
C        14.21364108809891    4.84685718786777   14.29042076295896
C        14.71902164292518    3.64162095354558   14.76039189491040
H        14.35719972710513    3.21571958010873   15.68482278046883
C        15.70495599383744    2.98709595075830   14.04465001902925
H        16.09763412793487    2.04631028043515   14.40216681179134
C        16.20425515440574    3.54917521076549   12.87989860173128
H        16.99198226478747    3.04743470717798   12.33642045578720
C        15.71298263613363    4.75724755360849   12.41834361445567
H        16.13173505417566    5.20306264701529   11.52670946608282
C        11.35116528241262    5.02581271507483   14.82168174021187
H        10.60776369523953    5.63073088283552   15.35429947863409
C        11.05445311611717    5.10038545353105   13.32529113040269
H        11.74858958793822    4.47497338538054   12.76476760044219
H        11.16610174232981    6.13486598596195   12.98150180719976
H        10.03928888674115    4.77110272371851   13.11029408703073
C        11.31583602634565    3.58943442518948   15.32620271838853
H        10.33371750059509    3.15924464910163   15.13362575338625
H        11.50264307022373    3.53318880585938   16.39626776357731
H        12.05640655868549    2.98394455005646   14.80703445153994
C        13.32632096977252    5.75157835331455   16.89784751568198
H        13.42993150784679    4.68222330820208   17.11951889749607
C        12.20468936591296    6.34411274052481   17.74307535316653
H        12.49295660691097    6.34909440507933   18.79343420233886
H        11.28668559261430    5.76889818004566   17.64403161992292
H        12.00453953522268    7.36905896016770   17.44020592887264
C        14.65328435992659    6.45157832211535   17.17914156188424
H        14.54853551714738    7.52278968540167   17.01537880774946
H        15.43706677158480    6.07297830450772   16.52270594538442
H        14.95944106790138    6.29158445342508   18.21172232108966
C        13.54753046511933    6.77557193709287   11.30208194435107
C        12.96186136534361    7.99054139048267   10.89209183751353
C        12.46513243713698    8.13692816721599    9.60850716687530
H        12.01690596425520    9.06876290765825    9.29571177244854
C        12.50252008459987    7.07061675641643    8.72293078204279
H        12.10901678497590    7.18396076551722    7.72346907355373
C        13.00319797329885    5.85091607106150    9.14260404041201
H        12.99245777924729    5.00513806213950    8.46998575256122
C        13.52031721196799    5.70111916249668   10.41825095592143
H        13.89960731108827    4.73715462737076   10.72405708038140
C        11.04326621017888    9.86502086003684   11.95531879034950
H        10.99686095719131   10.21472146407990   10.91741998327077
C        10.02821885993589    8.74372491358488   12.15524218414106
H        10.10600923585338    8.36622863449562   13.17495666105597
H        10.20976440183582    7.92687511855999   11.45679036050565
H         9.01531398097199    9.11170449964774   11.99890180147982
C        10.75236693265236   11.02448662039401   12.90269579315245
H         9.72421575767398   11.36022413606328   12.77352570725786
H        11.41015890855430   11.87131667340808   12.71828857385320
H        10.87901570638198   10.70422479431213   13.93404757965332
C        13.87652953706076   10.60339863676269   11.93824176549440
H        13.65523387091661   11.33413174863437   12.72639826452855
C        13.67487599059831   11.24790505839116   10.57193328379349
H        14.36633365707145   12.08209365158832   10.45740199422505
H        12.66582026747966   11.63321699856703   10.45071642011726
H        13.87811048033218   10.53109914555932    9.77889108219434
C        15.32623038146716   10.15334059211340   12.09995035380241
H        15.58153730397195    9.41155536797885   11.34356830142139
H        15.48839286713579    9.72512131547462   13.08797495089744
H        16.00005837363955   11.00136216242190   11.98517828716252
C        12.19207197905772    9.43219638961233   15.84655429668745
C        13.57280341270492    9.70923641583056   15.79144697676980
H        14.18255008024631    9.10729360502770   15.09892908577334
C        14.14229396695423   10.68339889655713   16.58148250488094
H        15.20578263278105   10.87418028611393   16.51807359973239
C        13.35837097381842   11.41695913129731   17.45778217667411
H        13.80260026068671   12.18111458640109   18.07809244348404
C        11.99809440528831   11.15725199690215   17.53092754219032
H        11.38111774620731   11.72506528766422   18.21416304964574
C        11.41542055139729   10.18533578664111   16.74666089062977
H        10.35492543119387    9.98574847632378   16.80499585082008
Ni       12.92618570758946    7.67937122991898   13.88936844486738
O        11.64939756340934    8.51321017089222   15.09517833719117
P        12.96612640079979    5.90984144329059   15.08313310228373
P        12.73512535520559    9.16028714704339   12.27837268113103

