99
CSD_code = JUXVOP | q = 0 | S = 0 | Stoichiometry = C43H52NiP2Si | MND = 4
Ni        7.31979264918656   12.17240589037571   14.28778639543334
P         8.28275777645885   11.73440654707109   12.34582335918765
P         5.58110236257798   11.98426173521708   15.61960221376223
Si        8.89074358595299   11.55682199864279   15.76987756765828
C        10.65107673418720   13.20266816099867   11.96464782336554
H         9.99097321973026   13.96252993448119   11.54986142886249
H        10.81092805597504   13.42252432720448   13.01507630215871
H        11.61149816687033   13.26793636641915   11.45474359052208
C        10.92782074684343   10.77790922674132   12.51728969696097
H        10.54479998241233    9.76856473286483   12.38499919956194
H        11.94570373259583   10.80947501101429   12.13064076732246
H        10.96206072040810   10.99312500307077   13.58230686911875
C        10.06678959264377   11.80458024050403   11.79327559574007
H        10.05865727059636   11.56564374697342   10.72448923793406
C         8.20462116561489    9.78181405529831   10.21520297065875
H         9.27965452799071    9.62515166531955   10.18093858819147
H         7.72628459804053    8.86497471813760    9.87140510293766
H         7.93399075802637   10.57660189819392    9.52341097724343
C         7.71199063319941   10.09708019716266   11.62293966926170
H         8.08600376989262    9.32649202443952   12.30767193669292
C         6.18620097764349   10.07479604207911   11.65268808312156
H         5.81348872056726   10.38133366310013   12.62859577560036
H         5.78357793383712   10.75889973439399   10.90760484810365
H         5.81143034961405    9.07449677151672   11.43997706550874
C         7.52080578967806   12.94995980856504   11.20989153906166
C         7.95668818039647   13.27574154758475    9.93009251352222
H         8.80284357344721   12.77309359701140    9.48576238221587
C         7.31851532403176   14.27276656854769    9.21512105830442
H         7.65810483655527   14.52263119643430    8.22016347112886
C         6.26181935803600   14.96739763809479    9.78214622640554
H         5.78265587707405   15.76427112343174    9.23123158996532
C         5.82540560199491   14.64752640052914   11.05407406857259
H         5.00942500989156   15.20084220942206   11.49947171426864
C         6.43412997345388   13.62196425290331   11.77180541901532
C         5.96606585531298   13.23632777193404   13.14185830524208
H         5.92519290944051   14.15834486675924   13.75447715529248
C         4.61113319313806   12.63181363788914   13.19209977937135
C         3.72510726267344   12.56947453734775   12.11841168026516
H         4.02743334645148   12.93206006119527   11.14662152152252
C         2.45475730387672   12.04956429453602   12.28273039749937
H         1.78207328673252   12.00750962675607   11.43774178132695
C         2.03320701250723   11.59716169559238   13.52175498050409
H         1.03385488045960   11.20750358055736   13.64931921065323
C         2.91122818254609   11.61398208599707   14.59346298538185
H         2.58312463467809   11.23419792640551   15.54765757381505
C         4.20128887870451   12.08961536691267   14.42580429956968
C         5.71168807840944    9.26956416466288   15.30331068626935
H         6.55963024848184    9.57127753174529   14.68142393514016
H         5.92061196877635    8.28373753446768   15.71484106234784
H         4.82214526385742    9.20428638207880   14.67756947384254
C         4.35053918000904    9.91137821264562   17.32105246664945
H         4.23794790151581   10.61356186031703   18.14273409206222
H         3.41466652205573    9.83544808518526   16.77493091908649
H         4.55767755509189    8.93175435322043   17.75196422876019
C         5.51455560887400   10.29411368416887   16.41567276410492
H         6.41780482266362   10.30410073004257   17.03845289271299
C         3.67724153254097   13.33376414136666   17.27471831561839
H         3.19250015726908   12.40132414229716   17.54563441805124
H         3.53391499001285   14.03820881354378   18.09350272163769
H         3.18233883709687   13.73467070228304   16.39164700853703
C         5.79404714576467   14.52078692764904   16.71833512563126
H         6.84344258287144   14.41030928170860   16.45310693587788
H         5.27048924578117   15.00680671066038   15.89588445945618
H         5.72771900770627   15.16801350937303   17.59153723443221
C         5.16987835008021   13.15915668014319   17.01593185164952
H         5.66099721232763   12.73514554905559   17.90114720469200
C         8.56709446589089   11.76822029239352   17.67003008357242
C         8.32592239919428   10.65593294280103   18.47158483115681
H         8.37020545778093    9.66799721225618   18.03332995947787
C         8.05788551121142   10.78608025608089   19.82217354455836
H         7.87313911158023    9.90667218329707   20.42362746723579
C         8.02963603140801   12.04207171505877   20.40516389294065
H         7.81724614920401   12.14821944891723   21.45956608308517
C         8.29012063453438   13.15856435810456   19.62922134365949
H         8.28904196544728   14.14174665115084   20.07933038970433
C         8.55573749744292   13.01803287227671   18.27858866165776
H         8.77452610464391   13.89668503004433   17.68906897796175
C         9.99037725577097   13.12158328500172   15.46390856517307
C         9.33068828257704   14.22209417714382   14.92251926459322
H         8.28034969920935   14.11852386605940   14.62911776407835
C         9.97412869561836   15.43036654475267   14.73275970505848
H         9.44129010222045   16.27401092405416   14.31640205672747
C        11.31170505713745   15.55172911197947   15.07363360857683
H        11.82423129530691   16.49243607139514   14.93175959124108
C        11.99159785380841   14.45942246871261   15.58613668906445
H        13.03907384816577   14.54859898551747   15.83845566552683
C        11.33449743392819   13.25577046861078   15.78099926897473
H        11.87697294764825   12.41030873742373   16.17619724447108
C         9.97690197600161    9.96312354183466   15.84820371325205
C        10.99118100641759    9.85795001677843   16.79190776449609
H        11.16914048823758   10.67724000061764   17.47269061667649
C        11.76019950891573    8.71231211396797   16.88903503951532
H        12.54906852116537    8.65246973590679   17.62599827582628
C        11.51596179104486    7.63781993080428   16.05003991471915
H        12.11436067393498    6.74109438368302   16.12654473327076
C        10.49252404300695    7.71613098201171   15.12168472251463
H        10.28473697840619    6.87572423953705   14.47343689772404
C         9.73500818647850    8.86983759811977   15.02853218787018
H         8.93250451347109    8.92577737143199   14.30629896133732

