29
CSD_code = JUXZOR | q = -1 | S = 0 | Stoichiometry = C8H15N2NiS3(1-) | MND = 4
Ni       -2.52398403024744    1.36480057799288   11.51001239081124
S        -2.31820923055484    1.28558054792882    9.25264396397353
S        -2.60071329809082    1.37315955511125   13.75628533540984
S        -0.66495882237872    6.45537990402649   11.04238329069845
N        -5.14811715686276    0.03901740578461   11.36045225746188
N        -0.76749070579349    2.35656731669267   11.58423912079152
C        -4.11743240079830    0.55516429091833   11.42617677929764
C         0.09192886096280    1.82084662949623   10.52372218620996
C        -0.58110742149527    1.88154167852321    9.16452911938473
C        -0.11179008317726    2.19609284543697   12.88516533646882
C        -1.09321288308933    2.38669580154422   14.02720869256161
C        -1.18454848733654    3.74227781922240   11.32925449357353
C        -0.05448802825503    4.73940192879587   11.06875827559184
C        -1.78635534342918    6.38302547242715    9.61647643530451
H         0.28156191768939    0.76677815036745   10.75988414640053
H         1.06898067787623    2.34238093282063   10.50494158400867
H        -0.58511683890362    2.89586277069661    8.75447411901048
H        -0.05123073895793    1.23607463282722    8.45990617899207
H         0.75314848288536    2.87806932543980   12.98654821865268
H         0.26614999788846    1.16877319489959   12.93713288618227
H        -0.64556983424036    2.04930188715817   14.96509119839607
H        -1.38600521083871    3.43279683999253   14.14954734459675
H        -1.76179322053690    4.09101959800012   12.19091645886269
H        -1.85739872084661    3.73278217284290   10.46470574358660
H         0.68700354241088    4.73238025220550   11.86837114041203
H         0.44461604578774    4.56297228527062   10.11409611566604
H        -2.05371748043117    7.40806992660951    9.38071045580206
H        -1.26835297291738    5.93010027376279    8.77542840267187
H        -2.67819661631651    5.81758598320052    9.86933832921646

