68
CSD_code = JUYCUB | q = 0 | S = 0 | Stoichiometry = C37H26ClOP2Rh | MND = 4
Rh       17.57816409218681    2.70831562569072   10.72920098810387
Cl       16.01518530380386    2.72659415030641   12.33812508811559
P        15.80138920877783    2.55735289289479    9.33357641589419
C        15.90176359472128    2.41772494345176    7.52684886338028
C        15.08573301628674    1.38931694716534    7.03046455827101
C        14.34632891309039    0.69646734159999    8.07775140622593
C        14.59659725295847    1.20358228489948    9.36657160647044
C        16.67161860962212    3.18966866376700    6.67680216308346
C        16.62728394548081    2.93984324959906    5.31462191643379
C        15.82516763766054    1.92357088177664    4.81636891315253
C        15.05468156941033    1.14608080197760    5.66446557653369
C        13.97484776431516    0.66091394617204   10.47719881717154
C        13.08626127556649   -0.38903532140503   10.30494789013690
C        12.83057195929218   -0.89177497343782    9.03805744491360
C        13.45615450723617   -0.35676032067207    7.92411067111535
C        14.79628260894914    4.06911050487125    9.49352679150658
C        15.41624573194761    5.19131897363881   10.03276083930839
C        14.71558054856543    6.37645503479626   10.15559566938192
C        13.39590860528603    6.44311101379367    9.73843245490763
C        12.77893480458697    5.32685379122276    9.19622655963701
C        13.47550637865774    4.13890706974545    9.06839296865490
P        19.02608870665657    2.88871563112523   12.46030221241366
C        19.03283758729700    4.28586175380435   13.61501241864267
C        20.32980039141689    4.79740264864687   13.80739759347326
C        21.35274132794726    4.07324550025353   13.06392086845072
C        20.82961484893580    3.01606380702278   12.30323801477845
C        17.94207541513781    4.85853368575871   14.24499490458069
C        18.14286617259760    5.94292210213755   15.08486491296993
C        19.41828260850594    6.44920739533434   15.28494213021586
C        20.51222840909008    5.88425480883098   14.65049535054115
C        21.65415660496714    2.21222417898489   11.53824432938772
C        23.01745211573337    2.45960638679590   11.53084823817285
C        23.54182823225199    3.50514779047443   12.27676472725100
C        22.71937820605931    4.31396082815804   13.04280835047793
C        18.88808987951651    1.41130451704241   13.51761216591166
C        19.35415858360214    1.37953989618579   14.82595600257761
C        19.24300997080615    0.21384227350063   15.56191650195846
C        18.67691649299898   -0.91771761516709   14.99635920377174
C        18.21880176183966   -0.88891193025987   13.68895184977745
C        18.32480460036451    0.27381198100189   12.94910820331165
O        19.65565054760629    2.66479104069120    8.59463096452050
C        18.85185467109919    2.68509738200998    9.41953482050804
H        17.29813033329365    3.97482601220706    7.07750273855709
H        17.22229588892556    3.53508817177303    4.63792358872181
H        15.80189447529777    1.73530029942939    3.75287896490625
H        14.43556437796219    0.35754731049228    5.26257491126965
H        14.18618762226316    1.05488228325699   11.46048322204973
H        12.59234754058220   -0.81942774086267   11.16353685277704
H        12.13729406962335   -1.71157371451587    8.91707934370236
H        13.25080712777365   -0.75809050148685    6.94253101553532
H        16.45266594733210    5.11557341929160   10.37051144876000
H        15.19432757335858    7.24653116074958   10.58080287599133
H        12.84453432862209    7.36646370473151    9.83965945463497
H        11.74907290564113    5.38223643811729    8.87439984993728
H        12.99559913201344    3.26530969932644    8.64899812323388
H        16.95182195598926    4.46114144960978   14.07708228373440
H        17.29994672691148    6.39752169256559   15.58400761634855
H        19.56163668975627    7.29569781003331   15.94087582813564
H        21.50051346399134    6.28910007201528   14.81188371602173
H        21.23265721809923    1.40477688122901   10.95520487288543
H        23.67446529863674    1.83986002747579   10.93880359637252
H        24.60568812502773    3.69196944645950   12.25883756819399
H        23.14160882317862    5.12490290042265   13.61789253682554
H        19.79239624506897    2.26506516136651   15.26550864143256
H        19.59721676852643    0.18755317747195   16.58227635389621
H        18.58940879917324   -1.82355792661351   15.57832731385006
H        17.77485718961831   -1.77076161211211   13.25050446755099
H        17.95511691049900    0.32024281344834   11.92216144860655

