48
CSD_code = JUYDUE | q = 0 | S = 0 | Stoichiometry = C23H21ClN2Pt | MND = 4
C         6.16307638785542    6.08388213867270   22.85196087854493
C         6.44219205307760    4.76126497770963   22.53011188635266
H         6.49290960044538    4.01987880065551   23.31474520873885
C         6.65769476734899    4.37609363353629   21.21558011253333
H         6.87432116170305    3.34195572607087   20.98852192254819
C         6.59866247100877    5.30637416182508   20.18903813580035
H         6.76919319989724    4.99788707712411   19.16769627452610
C         6.32225971994131    6.62939067630980   20.47237859672653
H         6.27768110666764    7.35139368435515   19.66955792627098
C         6.10461625993885    7.02616034775524   21.79026053897906
C         5.81144139234467    8.39556957438977   22.19340426919572
C         5.68641776999031    9.51734251883269   21.38000569508230
H         5.80708669576121    9.43140340659267   20.31278411566441
C         5.40380315734528   10.74612452941081   21.95710050606016
H         5.30251986794403   11.62452500123114   21.33814929925576
C         5.25167462833363   10.84833858647550   23.33095213285664
H         5.03274071440709   11.80184844151247   23.78224569373060
C         5.38486612136128    9.70209798428825   24.11106957697189
C         5.26011826066596    9.64742088714023   25.57056325879948
C         5.01265914761978   10.76319332153302   26.37063927223737
H         4.89066662685661   11.73830196648945   25.92562244753780
C         4.92556218465726   10.61817065627342   27.74332828093630
C         5.08821517083005    9.33824696087337   28.29414375250907
C         5.32262240796488    8.27844884267225   27.43745355844182
H         5.45108223325175    7.26919368758986   27.80833485249233
C         4.65629821686926   11.77170102011397   28.66860873870251
H         3.70284662707747   12.23993072826449   28.40986607477349
H         5.43361461454589   12.53076978316878   28.53787280362073
C         4.64786149667450   11.28463626533029   30.11526481953386
H         4.47970403947033   12.10467105056485   30.81392485567240
C         5.87809333966789   10.38787234685148   30.32763991859656
H         6.76824021494619   10.63679678334277   29.75180409851464
H         6.15101621548246   10.26197691354232   31.37060992138144
C         5.01514775506325    9.23327213107137   29.77820762997844
H         5.17653531274319    8.22196805835134   30.14612756545682
C         3.76816084171527   10.01860859239103   30.27648232415567
C         2.48003385546747    9.90848100885579   29.47148054771337
H         2.63662087909186   10.02715830236618   28.40360319931781
H         1.77358877957240   10.66794133912504   29.80202847744748
H         2.03055935849305    8.93084644066313   29.63445697769275
C         3.44530706413103    9.72249069430440   31.73728746242595
H         3.03969392369417    8.71737419995305   31.83259418960089
H         2.69970807870208   10.42712845400174   32.10091673604339
H         4.32060569604418    9.79674644322663   32.37497760027196
Cl        5.98260505915671    5.20659120810716   25.95526595394768
N         5.65506926310963    8.52058293403381   23.52883624753719
N         5.40816713008153    8.42583049627431   26.12275636461850
Pt        5.81823913098164    6.95921721677810   24.61323930020400

