39
CSD_code = JUYFIS | q = 0 | S = 0 | Stoichiometry = C16H7CoF13IO | MND = 8
I        -1.14371666398493    8.78592593998786    9.46655483132770
Co        0.46009483312990    7.68858054379128    7.82560710758026
F         1.66436776684557   10.15138268356911    8.32365530032535
F         0.58804795086723   10.00796206756529    6.45731425247941
F         2.51301676415502    8.71130042431342    5.26649507671365
F         3.48197194285701    8.13824189386067    7.11073218474969
F         4.23517804669570   10.55735406244053    7.68618687443216
F         2.90134341738202   11.49427153716198    6.25864267862786
F         4.16438438968492   10.55052296145648    4.18408795907137
F         5.26711641500953    9.08584649112048    5.32743296063125
F         6.72104335864771   10.85838110966090    6.55234289480390
F         5.42565598497618   12.51561515452888    6.03627639832999
F         7.01868620740895   10.44092878605859    3.69377902429380
F         7.86208989509279   12.20014843486832    4.59353792870521
F         6.04657450480187   12.34628445447476    3.45390141777520
O         2.23574543001401    7.47501830114869   10.10077665169525
C        -1.13525487040357    7.01391527699469    6.62691503538869
C         0.01396904377440    7.17778737892504    5.84698456602432
C         1.04092691677400    6.34867403341295    6.38122400753426
C         0.43839834892214    5.46388847408691    7.35249154050048
C         0.91951749311075    4.34778271800218    8.04659669124405
C         0.05626760463700    3.68237139215528    8.88884090329666
C        -1.26795447413906    4.10494864423209    9.06013338351138
C        -1.76758525027416    5.20210986333173    8.39178105973486
C        -0.91550495474111    5.89471187242796    7.52824701977926
C         1.40921454516425    9.30462368485287    7.28755182766571
C         2.75401812683579    9.12149470913766    6.52793469930209
C         3.64412644145743   10.40356047196378    6.49037487858538
C         4.73881735818803   10.32041308546805    5.37708123592516
C         5.89902244318595   11.33715987576912    5.60487064743643
C         6.72456910924175   11.58471357467205    4.30261503542223
C         1.57409297631970    7.55260060062206    9.18371966784664
H        -2.09729835465748    7.46723460415947    6.43933249772778
H         0.10533328389164    7.81204728227974    4.97836182328955
H         2.01052207771084    6.19063221307857    5.93303113884227
H         1.93661201157236    4.01408657419890    7.90501868962605
H         0.40068180480668    2.81038231823841    9.42317367002831
H        -1.91246012432174    3.54973972254315    9.72379456362860
H        -2.78863180063913    5.52455678343979    8.52860187611758

