48
CSD_code = JUYHES | q = 0 | S = 0 | Stoichiometry = C15H26N2O4Pt | MND = 4
Pt       -7.10874088616979  -13.42042184435125  -19.33398272401399
O        -4.16500215016492  -13.19025266033674  -22.07775324479548
O        -7.72611039627495  -14.86238906515668  -23.05141140656081
O        -5.45027411484000  -12.87083396443302  -20.32308239568879
O        -7.97991245781163  -13.98729033770891  -21.05173940704404
N        -8.85373574404509  -13.72678813162017  -18.13787063013094
H        -9.53176267904862  -13.10786653296329  -18.58996107619456
N        -6.32862193035050  -12.61848850615326  -17.57227216270236
H        -5.80813279336087  -13.27262299111753  -16.98589880010466
H        -5.68726600634341  -11.87396718482412  -17.84992076990112
C        -8.56791806836579  -13.20451815054995  -16.78505069786605
H        -8.15809760079007  -14.03605680829701  -16.19806963194127
C        -9.81922985200953  -12.65644164947386  -16.09208162836331
H       -10.58444878001030  -13.43131848399702  -16.02647532978134
H       -10.22512715015912  -11.83401997671085  -16.68632597141854
C        -9.48061146611065  -12.15151292385540  -14.69137352990949
H        -9.12174508376159  -12.98336438932559  -14.08168933895861
H       -10.38003324912623  -11.75606341897057  -14.21884201625987
C        -8.41019797309644  -11.06696727617266  -14.75562228720280
H        -8.79596619478277  -10.20571258402050  -15.30412245989825
H        -8.15661688573091  -10.73505693939202  -13.74861439553208
C        -7.15889319836407  -11.59390351806626  -15.45342363144508
H        -6.73604665671286  -12.41575315844445  -14.86931879806678
H        -6.40796474286661  -10.80413211308610  -15.51804454645344
C        -7.50190774099476  -12.09490975772356  -16.85854230745560
H        -7.90271460062690  -11.26386989667026  -17.45293665082271
C        -9.42858313392828  -15.08603423952248  -18.13087251034414
H       -10.05326416243623  -15.20393514653581  -17.23578823834334
C       -10.27940834645475  -15.34874684183376  -19.37841010746536
H       -11.30993498291837  -15.01736426247113  -19.25510617733397
H        -9.83201951972121  -14.83326492591899  -20.23042619884551
C       -10.15355507771466  -16.85287758552852  -19.59072491420648
H       -10.76041638576714  -17.39459409711012  -18.86175892714886
H       -10.45447453918867  -17.15484333921959  -20.59062364371941
C        -8.66806803779255  -17.08995579016586  -19.33528330195838
H        -8.10795608511099  -16.77337042910133  -20.21399490058499
H        -8.43500324795063  -18.13349049332284  -19.13253590676613
C        -8.33646655833210  -16.17797662716536  -18.14542721914014
H        -8.33788576610924  -16.74014471655092  -17.21122121467964
H        -7.34834195278591  -15.71702003541901  -18.27027446692675
C        -7.26959544385895  -14.55941192413678  -21.97173564016150
C        -5.80893636688040  -14.88653403151272  -21.58870049828162
H        -5.83311562742505  -15.41153518001237  -20.61788044876772
C        -5.06815472678283  -13.54934994446377  -21.35716896386772
C        -5.12685602294404  -15.72996813787848  -22.65207401765986
H        -4.11241564863123  -15.97533306773450  -22.34707551598614
H        -5.08285003237320  -15.16703488271842  -23.57986298829668
H        -5.68901993297215  -16.64419203825063  -22.82722836101080

