58
CSD_code = JUYQIF | q = 0 | S = 0 | Stoichiometry = C8H28B18CoIOS | MND = 10
Co        7.22435841443623    9.26813038299453    3.38192289406768
C         6.43169784448648    9.22786200264709    1.50447311698727
H         5.35435517156596    9.19972184891091    1.63472625396279
C         7.22739562136506    7.93411974240094    1.77546042937695
H         6.67716912252924    7.06462698247884    2.11677223004398
B         7.36345938143540   10.59715629035072    1.85143501544610
H         6.82218382609261   11.61871155111949    2.09751504048227
B         7.02498941488733   10.06544576326320    0.16564614273871
H         6.26247226213032   10.70742917921917   -0.46119213691480
B         6.94163275401156    8.31124146591562    0.12789181498435
H         6.11803430630842    7.69218674295184   -0.43736580599300
B         8.74919276328744    8.29978949171491    2.34637904122498
H         9.30211978294397    7.53654835762401    3.06188140928403
B         8.93073323113301   10.01890582772205    2.28929691527541
B         8.66506119400632   10.54165056836350    0.61179388831836
H         9.15554564960950   11.53136216377651    0.20168653319106
B         8.41030071474627    9.10946977695311   -0.40995078631953
H         8.75153682030158    9.07873778694237   -1.53515464432425
B         8.48745489066844    7.69402788296152    0.67044224623052
H         8.80301254800033    6.58763944695854    0.42407290965137
B         9.57218777049350    9.05007854673076    0.93784859976302
H        10.73517268662168    8.95071160535514    0.77755606676385
C         7.94134779488061    9.09917349487041    5.30466292324254
H         9.01685044196457    8.98427005798823    5.23075283952479
C         7.04844742305056    7.89121039120029    4.95605616767352
H         7.53348574517288    6.98415489170250    4.61291917449981
B         7.15056542185526   10.54770881901726    4.98742492201318
H         7.73320347900207   11.54808658357267    4.79314579351973
B         7.36114331381457    9.94210681767222    6.66206572740438
H         8.13338438194097   10.48878574105851    7.35621267535273
B         7.29641966336762    8.18784688888171    6.62875769985639
H         8.03018222685140    7.47749269124966    7.20673893042788
B         5.58087813030414    8.39680524923263    4.35925033472830
H         4.97470296352946    7.71039567062868    3.60812675029670
B         5.57138434153006   10.10697095410351    4.49245358812853
B         5.77551679660666   10.55666606179277    6.18491506571003
H         5.35139572226397   11.56802786803269    6.62924464432518
B         5.87959748770940    9.07714589895735    7.15289096075886
H         5.49928996236259    9.02858949405122    8.26470785810758
B         5.72335772426062    7.71658558354757    6.01109454727878
H         5.31261478694082    6.63313513584532    6.21563499892434
B         4.76179532713848    9.16497956440059    5.76916162717357
H         3.58625668877916    9.14151703383228    5.88281417355807
I        10.47085905782177   11.12680533848428    3.41512432865158
S         4.49566435705836   11.26272003366267    3.36927328674692
O         2.70492283169134   13.78281491946220    3.99182267963747
C         4.99839800851558   12.94906096114732    3.87524276293502
H         5.96944958626554   13.15076492873527    3.43095104928416
H         5.07876644462609   12.97107516636617    4.96030324255742
C         3.96351438350876   13.95315166201496    3.38273466709665
H         4.27710358774340   14.96619605255333    3.64498048526610
H         3.86723671125382   13.88295699656387    2.28815841465971
C         2.09507269259503   12.55845034465764    3.66601061060981
H         1.98172791070460   12.46912364756781    2.57398100147813
H         1.10246964336744   12.59816224714853    4.12124007926345
C         2.86506118760561   11.35682261042136    4.20399041901798
H         2.33288896840146   10.43318828229164    3.99038948084080
H         3.03007863445618   11.45009850993053    5.27572891520715

