31
CSD_code = JUYVAA | q = 0 | S = 0 | Stoichiometry = C12H10N2O6Os | MND = 6
Os        1.51267154140908    0.94269541985104    2.12342975343260
O         2.19659784056161    2.13749607062214    2.96888464362405
O         1.01744222212566   -0.44539949518226    1.46145700568118
O        -0.33193692695749    1.74116781973638    2.18051133327664
O         1.61389780435358    1.92561322438977    0.37270552053026
O         0.40997024763673    3.23458808975860   -0.93377079926325
O        -1.68302679937805    3.02725564740214    1.00123939305370
N         3.60710118661636    0.15490410727168    1.84509256523221
N         1.18241011452718   -0.07307661914347    4.11039411387249
C         3.81263694776050   -1.00370536056765    1.22583242640224
C         5.05616888897517   -1.37766299921353    0.74724772818549
C         6.12464291134439   -0.50899630172138    0.91027561707437
C         5.90416265725767    0.69748254965427    1.55643769703464
C         4.62850098097786    0.99056969981886    2.00654734302014
C         0.38995642753456   -1.13958845484676    4.15774764284058
C        -0.11296273052478   -1.63706662032434    5.34745641104130
C         0.21772689251437   -0.99813994516419    6.53246534351322
C         1.04644994315625    0.11224527093235    6.47696986325813
C         1.50262259904501    0.54413439284537    5.24374767485424
C        -0.61800586605603    2.47677869432433    1.13519063423333
C         0.52261109155698    2.58741960810549    0.07802566506561
H         2.94198384176197   -1.63553358882470    1.10383509864036
H         5.17884586508853   -2.32533886711003    0.24719229191173
H         7.10430421035372   -0.76295365018765    0.53431946928163
H         6.70291637419456    1.40708830032142    1.70130847598358
H         4.40043472842262    1.92349379970125    2.50712438613768
H         0.15328793930021   -1.59442603880876    3.20372534720826
H        -0.75869120823072   -2.50047307275413    5.34027208816326
H        -0.16814788073090   -1.35187371177007    7.47672330893670
H         1.32706510535604    0.64411317023463    7.37229937695157
H         2.13376305004956    1.41808886065425    5.14411258082442

