33
CSD_code = JUYVII | q = 0 | S = 0 | Stoichiometry = C10H18NO3Re | MND = 5
Re        3.19482506591876    2.49740748897627    2.45006702625089
O         2.66642655698310    1.72647461677801    1.07012904748602
O         4.58727170110790    3.40882337831534    2.39135684662577
O         2.56512539016525    2.05762571115125    3.92724635300579
N         4.80359729368730    0.39870661312580    2.69079270808240
C         4.00334459843740   -0.82318288015242    2.70163779812369
C         4.90445323293324   -2.07083314523912    2.78010559700553
C         6.35288307245493   -1.60060961082311    2.92367872155863
C         6.73036771914556   -0.78373446983594    1.68692184404023
C         5.72796150655374    0.37965654943429    1.55971409481718
C         5.54814834142064    0.51899485280566    3.94181327539652
C         6.46037582467962   -0.70411618486012    4.15832799424608
C         0.54417309641220    4.08778780486576    1.50644676865538
C         1.66267087490007    4.85167279480464    0.86433047767581
C         1.86618655398652    4.20434548130226    2.19820933286379
H         3.32689559099821   -0.76578377332452    3.55731063384831
H         3.39342186249503   -0.82805297400297    1.79499693347766
H         4.62954866135305   -2.69183075864386    3.63367329661432
H         4.80410213455716   -2.67912696828738    1.88006745888237
H         7.02004872231548   -2.46167038605144    3.02432466742339
H         7.74890410092395   -0.40761404128372    1.79283052218258
H         6.70044469854979   -1.41784242662382    0.79986984603557
H         6.23892922499026    1.34497224045500    1.53254308250644
H         5.13072553963472    0.29359276900539    0.64907613202029
H         6.12682379878260    1.44407668149044    3.89246951689125
H         4.82239058440282    0.62332087323002    4.75175547625265
H         7.49585407801802   -0.39243813702500    4.30142118809692
H         6.15562922680257   -1.26273718054947    5.04446254868806
H        -0.29220492496138    4.62384637095896    1.93240487884673
H         0.27556819221094    3.13871423227872    1.06743392020663
H         1.62340910575149    5.93145520566250    0.83403320805763
H         2.13430275649863    4.40889820220041   -0.00015646500711
H         1.90489581788962    4.86990106986201    3.05700526914268

