73
CSD_code = JUZFAL | q = 0 | S = 0 | Stoichiometry = C24H37B9P2Pt | MND = 6
Pt        1.73884299068580    3.96565918759181    0.31186022062384
C        -0.98301489575254    3.36745074420337    0.50248687165260
C        -0.85509994128072    4.85777750495584    0.64053313846539
B         0.12465638768368    2.86218100310038   -0.74983348290267
B        -1.70379149370702    2.92554789102574   -0.93482855673175
B        -2.34616748446371    4.27746402811629   -0.00169774816197
B         0.32667929326677    5.47212290818095   -0.45208110071379
B         0.77958683392483    4.25411542959362   -1.65919009531237
B        -0.69950861281831    3.52444511426417   -2.26301174428922
B        -2.12589546943191    4.46056163620560   -1.74070133158678
B        -1.49503115578493    5.70400031403650   -0.62226329943246
B        -0.58247677826970    5.27446187015405   -2.07791197754199
C        -0.99302449683887    2.57054069064001    1.74881974444217
C        -0.04062461059786    2.82146113436818    2.73772741501668
C        -0.02339974579081    2.09982382772058    3.91576534284024
C        -0.95806082619619    1.10100312274495    4.13246672642710
C        -1.90431714057856    0.83326399675742    3.15723700995957
C        -1.92433467756130    1.55991267899724    1.98110487650622
P         2.95272867274976    5.48078706563969    1.68507757214623
C         4.12181206700933    4.90771390859091    2.97110297247697
C         3.59332620810030    4.21164247297429    4.05586523844459
C         4.41007831896888    3.74603332207834    5.06621588080927
C         5.77867567640860    3.95176500037158    4.99900663126485
C         6.31920236219872    4.61301606853068    3.91044697681285
C         5.49833757324628    5.08689743124013    2.90144959707173
C         1.96761533375496    6.64841650378274    2.71951682080815
C         3.94479200198370    6.70402392735268    0.73945420357713
P         3.26425340168141    2.14747978091684    0.63151141025596
C         3.76179030547594    1.35072279285392    2.19987635419899
C         2.76628365248495    0.65580633008299    2.88282623615586
C         3.03534508949521    0.04006015025340    4.08882491194474
C         4.30832222033709    0.11257689411836    4.63245624227921
C         5.30154022654723    0.80648785596428    3.96380089236918
C         5.03121912380818    1.42857997660167    2.75747584263411
C         4.86462509933286    2.72345668437068   -0.06798452712716
C         3.04634534107741    0.62900000426839   -0.38763318802710
H        -0.87293561821036    5.25078346925517    1.65375637164442
H         0.43705213175354    1.71712524722002   -0.70796916890050
H        -2.25873928701237    1.88836069518070   -0.98560950791397
H        -3.29477742060573    4.28317675154086    0.69131780233154
H         0.77803095056409    6.54861398769026   -0.20467622336613
H         1.74740773148389    4.27002852297953   -2.35400715352182
H        -0.68558762902525    2.93520853371602   -3.28501346886058
H        -3.06453820710250    4.60745655331314   -2.43670721281774
H        -1.89459292885606    6.78988343953403   -0.39803309905451
H        -0.47384877338138    6.05991576061071   -2.95122572426127
H         0.71147982045359    3.58897813434645    2.56787988524771
H         0.72682216004126    2.30809339355462    4.66635714399142
H        -0.94736890118211    0.53513257608759    5.05260696711118
H        -2.63661062027296    0.05466223787120    3.31728376210602
H        -2.67496178175776    1.34926516738282    1.23502905747430
H         2.52849572742557    4.03479377737179    4.10461439839646
H         3.98314717929567    3.21718105107266    5.90554944104614
H         6.42066865264373    3.59258603025183    5.78934609416665
H         7.38720117631815    4.76627236221901    3.84688757704334
H         5.93919890383765    5.60584855465714    2.06294447706505
H         2.62549243656913    7.34513988500088    3.23767634930865
H         1.38066534637843    6.10227336473064    3.45435252755350
H         1.29001133519268    7.19944136809303    2.07102843899031
H         4.67149663842844    6.19467181091916    0.11073701214580
H         4.44765510227953    7.41027945238826    1.39870804594420
H         3.25731253563023    7.23907234533777    0.08718194157069
H         1.77248017046394    0.60882875517551    2.45899643693439
H         2.25299859765480   -0.49552065643981    4.60671635294414
H         4.52424328955834   -0.36859722011066    5.57516747941766
H         6.29521416609473    0.86655241326916    4.38391617555178
H         5.81651266161056    1.97560518299457    2.25927355629298
H         5.26300224306336    3.53707193574701    0.53480408639389
H         4.66166904112907    3.10128752955577   -1.06914004237215
H         5.59197474982671    1.91547689466309   -0.12798316321218
H         3.94227306098315    0.01068860632284   -0.34510053206189
H         2.84710634846128    0.92911912219020   -1.41426721252249
H         2.19773815957955    0.05538371182144   -0.02367094913233

