83
CSD_code = JUZFOZ | q = 0 | S = 0 | Stoichiometry = C30H41B9P2Pt | MND = 6
Pt       -5.26043539786219   -1.87387024182812   -2.53542122696796
P        -3.40633982658818   -0.98662404700370   -3.66473938020748
P        -4.17156239516058   -3.92627195922744   -1.86713992745403
C        -7.57931663228997   -2.43385465681531   -3.68222768248240
B        -7.24979774381420   -2.69037903314013   -2.05444145003534
B        -6.93548629615782   -0.92919685183398   -3.90287124428272
B        -8.71050284221642   -1.18812628217414   -3.96191951940767
B        -8.94441914414720   -2.40832560726350   -2.72320351942385
B        -6.84171089903551   -1.25685396075893   -1.03339039811287
B        -6.52064331496319   -0.05310997424945   -2.23216273183116
B        -8.00336319989160    0.24588626895114   -3.15538014937599
B        -9.32770287565575   -0.72887753950904   -2.39933486295626
C        -8.45768149901527   -1.71843585546431   -1.23454795741989
B        -8.08209884391169   -0.05222112542202   -1.39418367635376
C        -7.08963595646655   -3.25298087189936   -6.00336800654528
C        -6.89046831533999   -4.26774524635963   -6.91948187206230
C        -7.01462364737846   -5.59296482945262   -6.53847506160294
C        -7.36612556431810   -5.88314266982611   -5.23106308504916
C        -7.56347713191692   -4.86720855993879   -4.31540839805583
C        -7.40767436967881   -3.52329398089030   -4.66877776535524
C        -8.63749149897136   -3.28892979067370    0.71864966965987
C        -9.26107635860680   -3.73315422688935    1.86928089422127
C       -10.40561299754949   -3.10877717652747    2.33315422454621
C       -10.91085972623143   -2.02779023011110    1.63201145046113
C       -10.28699491718757   -1.58563660835097    0.48018423447361
C        -9.14001291450363   -2.21047420430277   -0.00996568625319
C        -1.25915565444723   -2.40963271643144   -4.93136198989470
C        -0.79425510389270   -3.39071698071797   -5.79175069432097
C        -1.68417696701690   -4.18166040475756   -6.49885302510069
C        -3.04890917947699   -3.99623422266119   -6.33971634925990
C        -3.51211807653956   -3.02489778227986   -5.47322823594520
C        -2.62459755078987   -2.21657009047094   -4.76751928453575
C        -2.01727748481631   -0.32988630128270   -2.65207748160987
C        -3.58112036636326    0.40613761643575   -4.85550951303833
C        -4.61944634027985   -3.73403595269637    0.83528086456841
C        -5.11313447032953   -4.09981848954853    2.07187093417772
C        -5.81293589654512   -5.28814944796918    2.21244871714186
C        -6.02199187054259   -6.09724993501359    1.10926233089140
C        -5.52288677515026   -5.73284214830155   -0.13036132236088
C        -4.80189786400581   -4.55437753165980   -0.27565082128443
C        -4.26899155472606   -5.39639352406121   -2.96658349109165
C        -2.36026829326474   -3.98083471192375   -1.50245568716137
H        -7.14191617055582   -3.80355980820856   -1.66753079870782
H        -6.33196915139769   -0.68877598794038   -4.88772005445974
H        -9.28985373768666   -1.19950174525427   -4.98428525358606
H        -9.70262965156059   -3.30517190459413   -2.72169435357436
H        -6.45716114549483   -1.38986384126519    0.07923707806263
H        -5.77417387227896    0.86435715087695   -2.14551753562666
H        -8.19725144403878    1.31812523386979   -3.60510920528420
H       -10.44573468201203   -0.41642556628556   -2.21505018692634
H        -8.38120091719035    0.69722798500629   -0.53718089664855
H        -7.00423855840268   -2.22833932018162   -6.33050175554004
H        -6.63979267758461   -4.02116651666176   -7.94208941666933
H        -6.85520164811168   -6.38786544312211   -7.25240081860565
H        -7.49192989408821   -6.91247627288467   -4.92327980392333
H        -7.85275126886569   -5.12098426639158   -3.30651578143152
H        -7.73758981290712   -3.78608989774005    0.39423984995803
H        -8.84333102993980   -4.57231982617762    2.40744866579126
H       -10.89387173744501   -3.45551455385735    3.23218806138959
H       -11.79823737288572   -1.52182633552551    1.98554703258884
H       -10.69514478927059   -0.73468727134680   -0.04122073746121
H        -0.55087709532438   -1.80184395509269   -4.38781348972755
H         0.26963750002000   -3.53798338170888   -5.91125776796544
H        -1.31408976532150   -4.94382924016655   -7.16860568815306
H        -3.75164263167660   -4.61325010380432   -6.88036666737523
H        -4.57656787989231   -2.89004534820200   -5.32483793388027
H        -1.59566972502298   -1.11830246397930   -2.03418329397597
H        -2.42910135998500    0.43638029774026   -1.99777007519964
H        -1.23919822586301    0.11367193272228   -3.27076753740712
H        -2.61004813736502    0.68568231632854   -5.26204487138822
H        -4.02850909635032    1.25331708082631   -4.34101189900202
H        -4.23751012254503    0.10834085076452   -5.66835277139909
H        -4.09926726005786   -2.79360010979027    0.71305323205168
H        -4.96480347173628   -3.45573487633082    2.92597915359217
H        -6.20312761165669   -5.57593280337778    3.17748666921405
H        -6.58283437289860   -7.01536736172041    1.21108368066111
H        -5.70804975952511   -6.36831543072581   -0.98328340141831
H        -5.29895283279096   -5.56391424846078   -3.27277929297433
H        -3.87173716356610   -6.28268643429657   -2.47379471498436
H        -3.68301264695286   -5.18780480756043   -3.86003991433601
H        -1.80924681199160   -3.75156782657670   -2.41294335013928
H        -2.07605048965630   -4.97057771588406   -1.14793108428498
H        -2.11188372108363   -3.24605629872036   -0.74075489454741

