45
CSD_code = JUZPAV | q = 0 | S = 0 | Stoichiometry = C20H22Cl2Zr | MND = 12
Zr        2.92031620164489    2.27849804839914    0.25316485473538
Cl        0.80429383780470    3.06143776243880   -0.30642164781800
Cl        3.06896763826722    0.88898097232188   -1.61232273991842
C         3.65606730973495    1.81691333956554    2.51008380816284
C         3.98711923364017    0.63700723904277    1.79195753243861
C         2.81332490809673   -0.02473342460996    1.38495229514381
C         0.31027791228138    0.53986740854875    1.74553106367891
C        -0.53140218183356    1.45555429533310    2.32241758450217
C        -0.03086198429270    2.57078537170008    3.01922526169315
C         1.31632579797775    2.80109396219628    3.13820102896397
C         2.22437100047339    1.89876479316573    2.54213886349812
C         1.70207937942600    0.73809855911102    1.83950393240279
C         4.58943766086996    3.00272144094993    2.70737612084731
C         4.61718289483273    3.60269502585605    1.30141235828931
C         5.20909987513501    3.02317131585561    0.13190274614673
C         4.59536289953044    3.60960176164249   -1.01160152409209
C         3.60662675885879    4.52514262296906   -0.56801915139022
C         3.60683453314113    4.51556071706497    0.85486530970213
C         6.35440469808243    2.05414078096208   -0.01078463230255
C         5.02048562948012    3.39033609576218   -2.43442701269137
C         2.77555965026415    5.41072949830608   -1.45143586133943
C         2.74456857517781    5.43101044326193    1.68265857977507
C         5.94118595681617    2.64537497680074    3.33057063480680
H         7.11974258629356    2.48845429739092   -0.65677084817633
H         6.82039917949806    1.82455411259937    0.94152555526161
H         6.01348243466255    1.12495312250889   -0.48145831724370
H         5.29186020503623    2.34882570013911   -2.60573319972020
H         5.88471344923144    4.01483285120221   -2.67312998445061
H         4.21454330248264    3.65061304290196   -3.11918459604192
H         1.92060290324770    5.80685504203121   -0.90721225681309
H         3.37060454757685    6.24705802060015   -1.82549380141873
H         2.39898401974613    4.85012545547735   -2.30929080436374
H         3.04445736573946    5.42633452116466    2.72845072259311
H         1.69072185093149    5.14331731984931    1.61201680160118
H         2.83879696437127    6.45519033702452    1.31841097418835
H         5.82080932061924    2.50205499444934    4.40231850725853
H         6.34831570243127    1.72513941431545    2.92373902729502
H         6.65435659076163    3.44995038027656    3.16761324165927
H         4.98289686084685    0.22816735551254    1.67146635431840
H         2.76362375978921   -1.00089026935033    0.91927250984316
H        -0.07731784981053   -0.33240272657955    1.23477171242678
H        -1.60032583545306    1.32053702613908    2.25666318548866
H        -0.73169093831759    3.25354158179899    3.47636121276791
H         1.67627635224260    3.63399486046432    3.72818271181061
H         4.10901904266490    3.72634055343918    3.37713188648139

