62
CSD_code = JUZRIF | q = 0 | S = 0 | Stoichiometry = C30H27MoO3P | MND = 9
Mo        0.18033499180473    3.09056637166566    2.60151056645973
P         0.77938904201129    5.06089924447442    3.77243826723212
O        -2.10928561516938    4.95344054465457    1.72760908427478
O        -0.52328993451041    2.22743231016741    5.45949818844135
O        -1.98029762787848    1.57347039334107    1.41280508531223
C         2.44217767936077    2.81733344958261    2.05185406421406
C         1.73339752770711    3.19319401161474    0.88286593658884
C         0.82625164968942    2.16168662370098    0.57998064058529
C         0.96160518453967    1.15430673337453    1.56711365430277
C         1.96141335375186    1.56381428729819    2.47371532126119
C        -1.85263471691810    2.28930156004250    2.37128295772507
C        -3.02592371807367    2.49101964060842    3.32436704132209
C        -3.26664004517601    1.22396632821276    4.08888318523760
C        -3.37640194933976    1.15412472319272    5.40447607271343
C        -3.61702922376869   -0.10355640136453    6.16997430779295
C        -1.25433288069996    4.26420897184864    2.09373739884024
C        -0.33480162218065    2.61628196850830    4.39272480221401
C         1.83818248950636    6.15545858675846    2.78009038447961
C         3.09538351968273    6.59020292807577    3.18286575068846
C         3.86280824566873    7.36820737964034    2.33166052156296
C         3.38321548989762    7.71811456914530    1.08121886469869
C         2.13142513440124    7.28230981045164    0.67242104099854
C         1.36663895237425    6.49651339262001    1.51289080515206
C         1.69144765927488    4.94743565720298    5.34217134546461
C         2.35969384296512    3.77415198454477    5.66711869251275
C         3.06601638508124    3.68062631252260    6.85342858020342
C         3.10770340368866    4.75939499902452    7.72082693974038
C         2.44629734748368    5.93495763740933    7.39973540151158
C         1.74113833605406    6.03279831955811    6.21514192306633
C        -0.59714113061007    6.14038302012833    4.26999510878297
C        -0.86387507006931    7.38204899488214    3.70690708538986
C        -1.98812180297982    8.09050461195425    4.09803880931467
C        -2.84674677195145    7.57106400839271    5.05029518092192
C        -2.57585032920491    6.33933857245045    5.62709651904867
C        -1.45863583196710    5.62677881393639    5.23909424206483
H         3.30263009582266    3.34058225736773    2.45662480369194
H         1.98629312464727    4.02953270081306    0.24394400712366
H         0.23061318852191    2.07801575749851   -0.31989406699278
H         0.49097442554258    0.17949904611510    1.53838440685418
H         2.38906641916838    0.94858276478319    3.25636424957223
H        -3.90345424444406    2.69332484991264    2.69841366125963
H        -2.86816629351223    3.33323509142770    4.00133772340437
H        -3.35052619147408    0.33385743909105    3.47895344633524
H        -3.29128853871552    2.05353467192499    6.00129240260863
H        -2.80112471982392   -0.27301626367388    6.87211106083016
H        -4.53863010026035   -0.02526295179658    6.74669130592489
H        -3.69064896984354   -0.95835875092457    5.50263096924502
H         3.47627641578147    6.31933085030466    4.15781140396229
H         4.84088164362382    7.70069018923643    2.64771353906131
H         3.98529743477041    8.32537087048889    0.42172287845976
H         1.75709499767624    7.55083863008568   -0.30483358865250
H         0.39486791242168    6.13545966896107    1.19695282216599
H         2.31328111081126    2.93280066235002    4.98737305097575
H         3.58042043899531    2.76460881000180    7.10426194623870
H         3.65370893265602    4.68469784745763    8.64955120395491
H         2.47980612596914    6.77620004053419    8.07650469302929
H         1.22419917785100    6.94806407818407    5.95843857473456
H        -0.19772065944313    7.80015266876262    2.96588111642482
H        -2.19378371359998    9.05235244740089    3.65162457840336
H        -3.72582937100817    8.12415985042124    5.34558821334106
H        -3.24012190236187    5.93452286005880    6.37648817008067
H        -1.23742870422633    4.66764355360223    5.68953365786524

