55
CSD_code = KABCOG | q = 0 | S = 0 | Stoichiometry = C23H26Cl2NPPdS | MND = 4
C        -0.80824380788569    1.92244019534367    8.68655483195774
C        -1.28179599272790    2.11264852372531    7.41399982439077
C        -0.49675295065714    2.68314684600403    6.27512143194908
H         0.54413651302175    2.35761206530179    6.34677363058344
H        -0.50812499491945    3.77642804554408    6.34754713075391
C        -1.09500548391015    2.27858953482958    4.93099302751114
H        -0.55804418145590    2.78217342945890    4.12563935580693
H        -0.98937667531010    1.20148670184631    4.78830525815001
C        -2.56976784348052    2.65656509373035    4.90999921346816
H        -2.98940903892492    2.51384002296626    3.91352125239532
H        -2.67209098557666    3.71329367161325    5.16750109491305
C        -3.34301353551921    1.80164710844536    5.91096981848544
H        -4.32500503858089    2.24631094984080    6.09447414783806
H        -3.52355418106608    0.80833562037677    5.48685021781558
C        -2.62435786550871    1.63362753963427    7.21299970820189
C        -3.15500291261943    0.96706945636393    8.29017769954581
C        -4.41221254397086    0.32236282039643    8.45613101803961
C        -4.73133220944658   -0.51532594465984    9.50141339519214
H        -4.01362452044671   -0.80138384847911   10.25776237288162
C        -6.04447043383317   -1.00592100334048    9.43771367845300
H        -6.46524505223486   -1.67707909942066   10.16409598637576
C        -6.72709347827418   -0.54498907921500    8.35382567344611
H        -7.73738099898019   -0.75330716008953    8.06202735740123
C         0.51726111805512    2.08975604746574    9.23338649596857
C         1.37337761998328    3.12759251740810    8.85130470145255
H         1.03375511412846    3.85832712146894    8.13657958805164
C         2.63009627681600    3.22576743157134    9.41485929553031
H         3.29806381428658    4.02283361577204    9.12479513244614
C         3.01089472451406    2.28577871173194   10.36102936248731
H         3.98307052807627    2.31764677782480   10.82447201783009
C         2.10795066351335    1.29898650979343   10.71801571631616
H         2.35720892899489    0.55289078359928   11.46523092235996
C        -2.77156696093726    2.08423738466067   10.90493526825315
H        -3.68583352007534    1.56294107250503   11.22046130246355
C        -3.13885824681468    3.44913829077493   10.32689000705769
H        -2.23334794796489    3.95578916133915    9.98273945482727
H        -3.80366879701895    3.32949731128089    9.46879867223636
C        -3.82010455772592    4.29533013532093   11.40064313704534
H        -4.07218828502969    5.27516669426409   10.99048733117860
H        -4.74999026760389    3.81054808257316   11.70538034925442
C        -2.91043077214694    4.45555505528518   12.61528875869120
H        -3.41522435228069    5.04848108205330   13.37979678247531
H        -2.00428392761892    4.99061556600516   12.32151686014158
C        -2.53177826580577    3.09089661278442   13.18480331950970
H        -3.43124357890080    2.57919466773100   13.53292481634915
H        -1.86468678059616    3.21445819960628   14.03930542294032
C        -1.84825475224051    2.23941159207564   12.11738706438872
H        -1.60062970975608    1.24431987142928   12.53758822522840
H        -0.91774152308114    2.73147125116079   11.80757264447191
N         0.89720682792532    1.19829495507209   10.17919494393617
P        -1.97400600878549    0.95456738637133    9.65773457762204
S        -5.77352128452410    0.49199256290831    7.37480515276683
Cl       -2.00329800049549   -1.74856218467765   11.47385577740481
Cl        0.99958012587576   -1.24866500599096   12.21689884588724
Pd       -0.47273999046100   -0.26643075139086   10.82862092786736

