51
CSD_code = KABCUM | q = 0 | S = 0 | Stoichiometry = C24H21Cl2N2PPd | MND = 4
C         1.19403668089790    1.85244345803753   22.84834717736419
C         0.58227480495892    0.74566633277796   22.00449862499155
C         0.50492153043443   -0.54634858921981   22.32968182958940
C        -0.10717381564243   -1.56232991237783   21.41708155726019
H        -0.68063398608251   -2.28224127819577   22.00549138372537
H         0.70197965693555   -2.11902208064669   20.92962062251572
C        -0.99805462583427   -0.91361926782646   20.36081278354517
H        -1.90811191801428   -0.54218972991854   20.83646707264054
H        -1.28506300149997   -1.65106894689119   19.61022643682490
C        -0.27620715445173    0.25760330475435   19.69352721876269
H         0.64056178752750   -0.10051304110288   19.21645796416600
H        -0.89008517553805    0.72607555321572   18.92547636863436
C         0.08086039165717    1.25689747999932   20.74000566415224
C        -0.05483725003635    2.60586136123078   20.66957965371175
C        -0.54060438626416    3.40972799897038   19.56242148023731
C        -0.99376243337246    4.71011625503111   19.80560167859080
H        -1.03095599922723    5.09615992699609   20.81874282062067
C        -1.43363323126436    5.46941414945457   18.73851532039781
H        -1.79697435450982    6.47343447891322   18.89866017137975
C        -1.39986937547715    4.91882876385626   17.46472429830490
H        -1.72791052456137    5.47899487744387   16.60316816423537
C        -0.93330300002528    3.62016216156056   17.32704061567870
H        -0.88935226988035    3.14061679252534   16.35706838312478
C         1.07351953853852    1.65084010416833   24.32631737621965
C         1.93548299219820    0.77094955784915   24.97380142475969
H         2.72170563664460    0.29142964520285   24.41068101385492
C         1.78287079890177    0.52537273203695   26.32713364688016
H         2.44518103554944   -0.15526751092834   26.84027960842138
C         0.76009781144035    1.17416944103432   26.99943105536998
H         0.58740197602692    1.01113075536546   28.05065556908016
C        -0.03762098876749    2.06325773520783   26.30154465046902
H        -0.82665863701571    2.62159623926581   26.79590809810366
C         1.58058355458728    4.61300927252277   22.03180453280718
C         2.43086299826111    4.61136857542272   20.93099122627140
H         2.31738768776462    3.85559352548476   20.16570263317850
C         3.40639465613970    5.58556192793852   20.82072585625823
H         4.06536558805106    5.59198697307576   19.96499424808698
C         3.53600508829506    6.55556991414769   21.80256814567839
H         4.29671357552325    7.31613712029085   21.70817600039322
C         2.68911272815118    6.55927440333653   22.90038174493420
H         2.78912585577239    7.32112799599942   23.65861586345082
C         1.70864270662997    5.59116606915470   23.01616675690175
H         1.01503279072648    5.59147028194503   23.86746414005269
N         0.11853760911436    2.30889436653526   25.00018516577850
N        -0.51241182041286    2.88245519221706   18.33655808704610
P         0.28127291546821    3.37019428685412   22.27363427400048
Cl       -1.91901590155513    4.53871022441487   26.01834616144162
Cl       -1.99864290399219    5.56639873923964   23.08565837566975
Pd       -0.93230719878954    3.89394646384419   24.09255801908531
H         2.25547003300615    1.94129199431399   22.57221148143810
H         0.89018752299963   -0.91130607459585   23.27138755385810

