31
CSD_code = KABPEI | q = 0 | S = 0 | Stoichiometry = C8H14CdO4S4 | MND = 4
Cd        0.00015092552513    0.00068379033105    0.00024468808135
S         1.91636945044696    1.75434872173047    0.17289177136104
S         0.44122145890677    0.65724172998042    2.51396242264611
C         1.64981914771957    1.63621690904212    1.84311827837027
O         2.44157849572049    2.36826912118813    2.58417537950336
C         2.31604293513582    2.32784946884024    4.00057431516197
C         3.52499772501900    3.02968027264343    4.60189192373385
O         4.60441962495822    2.13027338103294    4.60372715362253
C         5.80550696851804    2.70770005455195    5.04884178707555
H         1.38362971587076    2.82396512926263    4.29139355440933
H         2.28911988417930    1.28605688031671    4.33763885701947
H         3.28941638271163    3.34987398789378    5.62884694244182
H         3.76256478498847    3.91991802065902    4.00096791753318
H         6.55928902274132    1.92529433449897    5.00134607020096
H         5.71445806964747    3.06749960163866    6.08126657810061
H         6.10597520674231    3.54519188245153    4.40800287291451
S        -1.91576618053757   -1.75543159309835   -0.17286532710097
S        -0.44079366869152   -0.65793610704582   -2.51367804227191
C        -1.65215304101668   -1.63321119047415   -1.84309685979900
O        -2.44235146818499   -2.36724223307515   -2.58415914805271
C        -2.31606830286681   -2.32759887502135   -4.00043112624846
C        -3.52475037677746   -3.02991455411925   -4.60180592723113
H        -1.38340410846120   -2.82353698352986   -4.29074818934289
H        -2.28937519357985   -1.28593556528756   -4.33787003628139
O        -4.60433099493619   -2.13064872035637   -4.60408455294755
H        -3.28895372554126   -3.35035274352799   -5.62865980502414
H        -3.76228058704121   -3.92003429363921   -4.00067236388798
C        -5.80530589538036   -2.70829454504735   -5.04918241511644
H        -6.55917065531869   -1.92595373006679   -5.00194531400092
H        -5.71409694035581   -3.06831606125546   -6.08150603242232
H        -6.10575866014170   -3.54565609051808   -4.40818537244995

