103
CSD_code = KABTAL | q = 0 | S = 0 | Stoichiometry = C56H38Br2F4N2Ni | MND = 4
Br        6.38247410602799    1.95275938107480    2.19642592900078
Br        6.50545840092313    3.45825184398816    5.00603902657455
Ni        4.94432423825697    2.45893803434451    3.79433425758626
F        -1.55937413419572   10.60459193870637    7.90320491396741
F         4.76935568368542    6.31378653014706   13.29116932991972
F         6.04510510096231    3.29530902782299   12.48970576569575
F        -1.39079277523875    0.51395800056934    6.87301067133947
N         3.53750907836244    1.17607648439201    3.13459018545023
N         3.44199756551383    3.36063380545835    4.65244384297006
C         3.49935287862689    5.47216955746172    7.65380999453536
H         3.54084826595970    5.32029142272259    8.72058602109403
C         3.42066630425818    6.74283059719258    7.15024401392646
C         3.36808780615657    6.93557227456985    5.74259276203513
C         2.32732562532395    2.86906807829105    4.22837894679680
C         3.53970066312053    4.33895938907768    6.83337267198327
C         3.44476255176125    4.50193565850772    5.46806055119377
C         3.64426268459865    2.94737224844044    7.42308867255659
H         4.34556635664566    2.38097628476232    6.79226000879281
C         3.73184678323977    7.52810323283770    9.50502787257382
C         0.93319717033578    3.22425962331602    4.42974728341901
C         2.29782468554504    2.27190038549057    7.33868345330970
C         3.38621864110078    5.79871351983887    4.89096421444741
C         3.38656379935276    7.93518577585125    8.08590989669064
H         4.16482540611287    8.63497178554192    7.75832978459152
C         3.36753502092727    5.97742224199356    3.49282381711650
H         3.42133515365286    5.11045529890526    2.84645233409321
C         3.29302148373378    8.20929420577366    5.13997778067917
H         3.26044577855884    9.08903798385625    5.76265910798485
C         4.24745085799592    2.99989481558260    8.80992366612066
C         3.73307916836089    0.00090812057636    2.40469681551055
C         0.88109254239992    7.95083175731881    7.73833352551321
H         0.92224399131180    6.88763483102029    7.55143433826906
C         4.46936372258284   -1.03082773212365    3.00365443859746
C         0.19076628891430    2.13487908771445    3.91015156405980
C         2.37528415469133    1.61473090084445    3.47012671060846
C         3.53052785159557    2.71727738756671    9.96329951497355
H         2.49725363210393    2.40967237744543    9.90242062746654
C         3.30700990769103    7.22761914056223    2.94598485597717
H         3.30131220977128    7.35412312934272    1.87395536114170
C         2.64799140566630    1.06661337255762    0.38882050926423
H         1.60474774655739    1.18033764936221    0.68805454706618
H         2.67877632529570    0.92690169349557   -0.68840088929981
H         3.17353112536091    1.99107528820090    0.62815313571545
C         4.69145915714926   -2.19306064491104    2.28421496430039
H         5.24867352195076   -2.99649470156978    2.74188609100120
C         2.05256035853550    8.64462238365693    8.01861912352202
C         3.29814203989998   -0.09644575059481    1.07588104110811
C         1.14544746258722    2.92400793379099    7.76556223099334
H         1.22275941480542    3.90789428187641    8.20423092329131
C         0.94928551979322    0.40028880978140    6.62496318641515
H         0.85084756358146   -0.57795712966177    6.18076411259219
C         0.25875365253210    4.27677754750480    4.99865584878161
H         0.77606088534497    5.13716633355144    5.39522520728357
C        -0.09657830668437    2.33248552930866    7.62829093665093
H        -0.99587036864526    2.82952228013536    7.95566925345017
C         0.77325624410207   10.67947243241560    8.23196347852384
H         0.71023730949442   11.73902935845304    8.42185658465267
C         4.13016912304267    2.81742928104787   11.20781665736915
H         3.58343501069788    2.59918727714095   12.11144522130812
C         2.75525001609192    7.30953874815054   10.46808860684019
H         1.71411748016354    7.46073627407464   10.22558701450060
C         3.09856483297434    6.89993864978147   11.74438583294109
H         2.34712730048186    6.73194205876653   12.49958456921865
C         1.00910263902413    1.13067699675129    3.33492662345008
C         2.18347621237795    1.00469018414274    6.78089215096084
H         3.07472865273516    0.48559860149610    6.45946760428859
C         3.25877507258855    8.35142554639962    3.78023053839181
H         3.20505405381580    9.33617230863430    3.34088775907566
C         4.98776976143876   -0.87318709082770    4.39970017249403
H         5.37177316222127    0.14811304013299    4.55770456058342
H         5.79690236333732   -1.57298628772820    4.58970176530725
H         4.19733042891599   -1.05219764342057    5.13081140143386
C         4.43301939210690    6.70609274051798   12.04753571885848
C         1.98266483979211   10.01041261287278    8.26770640692303
H         2.88594121513599   10.55817881772816    8.49348403974864
C        -0.37318234967839    9.96235099902199    7.94353216733616
C        -1.14544789054650    4.21689387113701    5.05053527447408
H        -1.67260536426692    5.04932815765267    5.49286176978052
C        -0.33775639770467    8.60272712856202    7.69625809766335
H        -1.25260196347650    8.07431148019685    7.47857500863443
C         5.58271708098095    3.38370880180150    8.91261949876265
H         6.14458505268478    3.60218211546028    8.01626010089045
C        -1.20177726435833    2.04744753466984    3.98265270965538
C         5.06702676033990    7.32206222681857    9.83923203091696
H         5.83304589382801    7.47503745949980    9.09361156069905
C         6.19284700174853    3.48882052236261   10.14652784761438
H         7.22671010691180    3.78070817160547   10.23490400632825
C         3.55024479131701   -1.27339344425647    0.38887410744914
H         3.22487010220438   -1.35939933235345   -0.63723266494351
C         5.45461262695707    3.20280365235015   11.28170069622951
C         4.22338953282699   -2.32222126453716    0.98917859945853
H         4.40680430478983   -3.23106656506026    0.43700517135224
C        -0.17722948082516    1.08131516846287    7.04554885891999
C        -1.86368465506740    3.14619295132892    4.57524051183290
H        -2.94054717181367    3.13475715891500    4.65311713751452
C         5.42753995328671    6.90911247223416   11.10770854316010
H         6.45912163496600    6.74545563126903   11.37454874072233
C         0.41575538052199   -0.00936688321628    2.84880551377551
H         0.99453125853944   -0.81302228076640    2.41784779354862
C        -0.98453003421860   -0.11974675316627    2.93146441396789
H        -1.44534194736558   -1.02041249121588    2.55376471621940
C        -1.77899345288174    0.86555398301056    3.46627655966361
H        -2.85021477477160    0.73829231845411    3.50643977071962

