31
CSD_code = KABXIU | q = 1 | S = 0 | Stoichiometry = C4H16CoN6O4(1+) | MND = 6
Co        0.40092216240066   -4.64201145372643   11.29223478053163
N        -1.09396525429897   -3.78103960272683   10.91306093657706
N         1.30309931352567   -3.17788834378916   11.69489904239556
N        -0.72996209002773   -6.49584694274281   11.03802953326749
N        -0.22337281684735   -4.93020598905152   13.25259357937571
N         2.28125734071022   -5.73303068254974   11.51741432308399
N         1.08008979874848   -4.55813202103848    9.32942401152556
O        -1.49569390622687   -3.00567641464676   11.73356763694657
O        -1.58768748135915   -4.09567064574540    9.86456143854261
O         1.89497863462918   -3.23784382240995   12.73804693946459
O         1.27774076068268   -2.28876909326204   10.89198660649336
C        -1.57108688987922   -6.67071320602381   12.23729445563345
C        -0.73684978752418   -6.29292068438447   13.45822796154129
C         3.10374700391478   -5.44759513324307   10.32655657751025
C         2.19330253596733   -5.49234346970633    9.10241330024034
H        -0.14112831997990   -7.32018899764266   10.93357314775313
H        -1.33075215102014   -6.46927897765858   10.21464662755583
H        -2.43060473235232   -6.00044001584205   12.16228454145819
H        -1.94500909887885   -7.69425396778582   12.33374758736148
H         0.10948261430803   -6.97762085534612   13.55193081675002
H        -1.34300347274514   -6.36656145094430   14.36540559826664
H        -0.96890309767928   -4.25874981209872   13.46064768926839
H         0.51477844844486   -4.72886661771935   13.92920920133548
H         2.16006978882381   -6.74157389026033   11.59122377628593
H         2.79563450735486   -5.44623633854849   12.34972921686023
H         3.52961525031949   -4.44654180778776   10.42744540831154
H         3.92786728542730   -6.15823145010278   10.21401593473250
H         1.78842695589205   -6.49996181595218    8.98168358623389
H         2.76043968556243   -5.23784185310956    8.20280385196536
H         1.40131493713772   -3.60446580646563    9.13660023091002
H         0.33485207496957   -4.73149883768892    8.65294166182186

