81
CSD_code = KABYUK | q = 0 | S = 0 | Stoichiometry = C30H42N4NiO2S2 | MND = 4
Ni        2.88795397721075    1.79988016547551    3.66824230103703
S         1.02134956376849    0.73747214477477    3.47529502274724
S         3.40706807985840    0.66457744024167    5.42190651366050
O         2.50072273812633    2.82029307517632    2.13704764077247
O         4.48251232129659    2.79244316814501    3.79623182569563
N         0.37541301607816    2.34202361212785    1.35190630200544
N        -1.25741956330958    1.04015788692759    2.21293901103030
N         5.76944109220728    2.04788602799137    5.57241846940918
N         5.47000190590166    0.32936537332179    7.00305265426296
C         1.56374900167565    2.92962027046770    1.31035104301250
C         1.77381696502285    3.83551314824389    0.15457266667055
C         0.77778640664788    4.05059951147616   -0.79231114971192
H        -0.16683760979112    3.54357687514111   -0.68510680983939
C         1.01911600362271    4.90622306378283   -1.85033281534223
H         0.25128946957370    5.07667391130939   -2.59131666656245
C         2.24083213078115    5.54818450265952   -1.96778536124475
H         2.41814633033414    6.21672005754771   -2.79869013030682
C         3.24704092673938    5.34204860838821   -1.02976693023647
C         3.00066682190821    4.48036701104636    0.02659267824994
H         3.76180603832141    4.29063829531223    0.76912262539796
C         4.56083712421860    6.05398725889735   -1.14651670658548
H         4.86815891424668    6.13322131579374   -2.18727262029081
H         5.33390391390421    5.53306557147062   -0.58705153850218
H         4.47233260497496    7.06432460195651   -0.74541521217967
C         0.02078991984111    1.45011850326367    2.26155173932073
C        -1.76054078462764    0.01272815986925    3.09380027614306
H        -2.84152269210907    0.14264170136154    3.18694003926833
H        -1.30697775028754    0.15299143219620    4.07946295188351
C        -1.44798557685417   -1.40639032766302    2.60847118616112
H        -0.37553651497128   -1.48497497367930    2.42910269843315
H        -1.96695381160774   -1.59584361769251    1.66727858254093
C        -1.86899858159815   -2.43908996750025    3.64475444913093
H        -1.65633920835303   -3.44327447098429    3.28733589611118
H        -2.93498374391384   -2.36555598034272    3.85058089358765
H        -1.32620807779981   -2.28229089809020    4.57334695115481
C        -2.12936951751922    1.58119386497373    1.18953584513218
H        -1.92462546642119    2.65135599927576    1.10504364564126
H        -3.16246685127837    1.44317101583806    1.51612434843205
C        -1.92297155519213    0.92965799878591   -0.18049182758094
H        -2.14234346742003   -0.13735143500666   -0.11791400105509
H        -0.87556949465997    1.04529788898327   -0.46030936191014
C        -2.81744292946073    1.57458137954370   -1.23090918966323
H        -2.65734919822204    1.11226372303683   -2.20156479371359
H        -2.60116771353151    2.63690841323377   -1.31721393596279
H        -3.86648342931059    1.46045449711515   -0.96499956028983
C         5.47959395497446    2.84804765270646    4.55544863519529
C         6.48113480601459    3.91130049453129    4.29225826380666
C         6.20763042546623    4.87103359041563    3.32140965603806
H         5.26864892279480    4.82529640648052    2.79131821884242
C         7.13219786525532    5.86304645611849    3.05820676384325
H         6.92426205465516    6.61087780707609    2.30653979103106
C         8.32709901395804    5.90179934030018    3.75639032189714
H         9.04777071008874    6.67949099822401    3.54538668289601
C         8.61494263756095    4.94991700733938    4.72946258967030
C         7.68294629777716    3.95797256821146    4.99075812131805
H         7.87776496312483    3.20467359841046    5.73779622276304
C         9.90362341285518    5.01210336296300    5.49314963261588
H         9.83679491437601    5.76846104392747    6.27569618707548
H        10.72878423575963    5.28270304714214    4.83753395753227
H        10.12291865818202    4.05615029154400    5.96183086921100
C         4.98527029638639    1.06953536900488    5.99433024492502
C         4.70740085263237   -0.73513058127073    7.61183121096325
H         5.40659854407161   -1.45284403156958    8.04573237482491
H         4.12503866073123   -1.23889697154264    6.83627470032049
C         3.75630885247621   -0.21569149153251    8.69482710273750
H         3.07435816006373    0.50491254124999    8.24297033128537
H         4.33291160386564    0.29983083689656    9.46623799683966
C         2.95996204899346   -1.35486232819717    9.31540594831193
H         2.28869357737497   -0.97560311121332   10.08144003322015
H         3.62440280691756   -2.08601145675871    9.77158110185827
H         2.36602679779903   -1.85579232103214    8.55520982685879
C         6.75531732808465    0.67364439881185    7.57917647511320
H         6.80760691885679    0.22973099380027    8.57497569286651
H         6.81075303909271    1.76153746069011    7.66926314104788
C         7.92874545101375    0.18532947153232    6.72393199932904
H         7.83841711796449    0.63116245374844    5.73333310911383
H         8.85433229276329    0.54486245754845    7.17822104453171
C         7.97477990389932   -1.33218023276774    6.60040080990252
H         8.83786978764833   -1.63549091534918    6.01267314374123
H         7.08053799270648   -1.70241407117450    6.10542886327690
H         8.05081336580172   -1.79815794046208    7.58132928926570

