32
CSD_code = KABZOE | q = 0 | S = 0 | Stoichiometry = C9H14N3O5Re | MND = 6
Re        0.58637936035470    9.61398536219480    6.63703042137997
C         1.15041903049808    7.90535242367313    7.39096312521544
C         0.62205544874069   10.46186147835637    8.39337937341349
C        -1.28098212577443    9.08498631410322    6.85430823427981
C         3.12350642003679    9.11955186683828    5.09174682032963
H         3.12614210310000    8.12653165299304    5.54951170251600
H         4.12784750466590    9.32393387781913    4.70253999526227
C         2.10636019285111    9.18600827057188    3.96045405243004
H         2.20457543698365   10.15391297131982    3.46219728413086
H         2.31052142962347    8.42757643169829    3.20125849546756
C        -0.19914798597760    9.89943873401611    3.72720243385553
H        -0.05232189707816    9.72661380530304    2.65270884004150
H        -1.22208929420706    9.60603937565755    3.98286034509933
C         0.00379660495825   11.36848289298881    4.08438989315452
H        -0.74807401283716   11.97223868247279    3.56599242229364
H         0.98532125826976   11.72090941003536    3.75407370659263
C         0.31067102690703    7.61713777169737    4.20645218940357
H        -0.69052283376057    7.44394612753122    4.60746414020309
H         0.99712258899906    6.93583049474357    4.71423999538371
C         0.27951209353888    7.16876907889004    2.63732888133975
N         2.72420075432342   10.10577634253333    6.11810900685739
H         2.83179123382267   11.04208077857811    5.72029934833903
H         3.37126318080207   10.05549614441452    6.90700931319579
N         0.72264729621403    9.01491722890064    4.47847819166894
N        -0.08716152016263   11.53311069270348    5.55287496459021
H        -1.07226929893516   11.64425313145972    5.80127574998801
H         0.36616538380204   12.40280633233589    5.83623933417381
O         1.48339670667827    6.89935292633505    7.81733959192717
O         0.65363879270592   11.00538463036599    9.40201946027350
O        -2.37515907879079    8.77025278899927    6.95718229413891
O         0.69101537138249    8.01575347476077    1.83543790518282
O        -0.14342117173464    6.03680850570950    2.48743248787202

