49
CSD_code = KABZUJ | q = 1 | S = 0 | Stoichiometry = C18H18CoN8O4(1+) | MND = 6
Co        0.18661572962866    0.53879405264556    2.59690017015903
C        -0.19665331709315   -4.09002496133823    2.97970366064960
C         1.46052308816349    2.36170819130091    3.90938708380349
C         2.77531050467207    0.47944171252048    1.20015928509066
C        -0.55303751743924    1.33137247390050    0.14203566475877
C        -3.75339580325108    0.85586692230251    3.60332738299025
C         1.65004894945263    1.49033108844804   -1.06412030732641
C         0.68600880140877   -1.93964664319320    3.56536414477910
C         1.45925130274467   -1.01592105483474    4.37630516913963
C        -2.36302328175108    0.84316417924346    2.97254479175466
C         2.09525648415740    3.70013485081344    4.28839916147945
C        -0.88943086115241   -3.47962926732796    1.94392046756457
C         3.59394434742539    0.79194480664217    0.12766248604471
C         3.02087185545342    1.31201650706072   -1.02430402580462
C         0.60121951619768   -3.31097358429402    3.79850147948913
C         0.88497815612389    1.15608748254803    0.05160709158944
C        -0.75947673092307   -2.11181521151480    1.76553632074126
C         2.29938237083249   -1.42245497888960    5.53493241052085
C        -1.41019778374877    1.85996997231297   -0.94923276813464
N         0.00582522619251   -1.35687698648381    2.54586035610965
N         1.31743399854977    0.20572611789705    3.97097346350791
N         1.89041466045911    1.28022360237040    4.52777421926626
N         2.44669317706557    3.76812096178990    5.58170059626592
N         1.45891749763723    0.65365037651291    1.17321566861441
N        -0.99935562777851    0.98480011538441    1.30657743795109
N        -2.27335281101873    1.06521855609925    1.68909310431127
N        -3.72064274766284    1.18943547990424    4.90320701468503
O         0.60443946882320    2.33002122306987    2.98013216580338
O         2.25989342970951    4.56482442940589    3.46665814723121
O        -1.34857861616813    0.59887153316948    3.70891877333407
O        -4.73641771768446    0.56471949171474    2.97356434616710
H        -0.28207574328867   -5.15203018162669    3.14812033488881
H         4.65762943282136    0.63842273347423    0.20359760206512
H         1.16737665808809    1.89761375154464   -1.93722069292551
H        -1.29645558253540   -1.61225480257317    0.97102468577669
H        -4.58291324716155    1.23917529773898    5.42179609073729
H         2.35386750809704    2.97187094220385    6.18757400432955
H         2.82484578989444   -0.55060703766877    5.91545583174067
H        -1.27839752556516    1.28206805656063   -1.86239576369702
H         2.91050033642322    4.59853224382539    5.91652811902650
H         3.63337301937392    1.57721980566040   -1.87161788631738
H         1.14696434429248   -3.74737779199001    4.61885430917165
H         3.19957825531854    0.08023491172846    2.11140152858002
H        -2.85057783696360    1.40026600546470    5.36126922893155
H        -2.44977667375106    1.81544373983060   -0.63353204246758
H        -1.52679173083307   -4.04625916591511    1.28566072696962
H         3.02224469688246   -2.18109174285913    5.23962075074997
H        -1.15055093793543    2.89664448874359   -1.16091029215635
H         1.67819348781631   -1.83577269332312    6.32846850206092

