35
CSD_code = KABZUK | q = 0 | S = 0 | Stoichiometry = C10H14N3O7Re | MND = 6
C         2.58537847193793    5.22887894390231   11.39588555060613
C         2.83894604497981    2.31733771541230   11.14823451031135
C         0.43704151241154    3.73904169064378   12.04402855722243
C         1.10153792765459    5.23387705914239    7.51602104937383
H         1.02047694881099    6.19897805100312    6.99534745053952
H         0.72385947081737    4.46718421367849    6.83245715017214
C         2.57864214203133    4.96308423128650    7.81525246994152
H         3.00326319617117    5.81179700857622    8.36190026956988
H         3.11356582453107    4.86042347759678    6.86061073728495
C         2.39541987331316    2.51394241639675    8.00819206823002
H         2.73801937859794    2.44808797993764    6.96623169818716
C         0.87927127124545    2.29291481270202    8.05766152759870
C         2.98274004632499    1.27977318694151    8.75868390815452
C        -1.13803688920102    5.11763045759023    8.46401853624993
H        -1.29001858365427    4.41446091950180    7.63749991009353
H        -1.52879629700656    6.09217384098118    8.14213979583266
C        -1.93604001070986    4.62078293456427    9.67632528576063
H        -2.93389133887717    5.07469419520486    9.66158716185337
H        -1.42822313930367    4.93065860790174   10.59419761029555
N         2.75844173138871    3.77388407607615    8.66004164126174
H         3.75634096191481    3.72730573267037    8.88498194283777
N         0.29946950352373    5.20073321029429    8.74158384795063
H         0.47242063637073    6.05838427669041    9.26932455998579
N        -2.00852432241317    3.15503658044583    9.67325376176182
H        -2.32613527640937    2.81279691836456   10.57415621159432
H        -0.60330506670475    2.55068278099473    9.38678759788200
H        -2.64942794705333    2.82585967972560    8.95695687998049
O         3.17760836139947    6.10181435786915   11.86801919473629
O         3.36803217911134    2.02505876009843   12.15997737135292
O        -0.31100637618793    3.66218766716946   12.92030141431411
O         0.43496900037030    2.41135937413589    9.29330344862828
O         0.18546939253885    2.04026656694382    7.10670120803750
O         3.26087369556159    0.30117358220243    8.12188034647003
O         3.14837757398731    1.33302341043043   10.05737351825175
Re        1.59994010252201    3.83261128292073   10.51108180766778

