33
CSD_code = KABZIY | q = 1 | S = 0 | Stoichiometry = C9H15N3O5Re(1+) | MND = 6
C        -1.90290864173488    2.50021137527467   15.81500300076896
C        -1.05157980045950    4.99542096077446   16.76980232220231
C        -3.47009181332048    4.76923034205709   15.43527025279860
C        -1.30636333780033    5.93115107100803   12.61474921251584
C        -2.25621692182094    4.78595478215901   12.03668547426742
H        -3.26987476822613    5.18197818948361   12.14183718360175
H        -2.01812899089603    4.65167641483419   10.97633869275754
C        -0.95024010589026    2.76671844701924   12.38073084616869
H        -0.98388407821175    1.79479122790514   12.88543091950989
H        -0.95378134058495    2.60695940781178   11.29396923971735
C         0.35877144465555    3.47224857131686   12.75499587043024
H         1.19627319769466    2.84453934918636   12.43074569763260
H         0.42991233624813    4.41812434425640   12.21256546431437
C        -3.35086624538407    2.74011002710357   12.76106225955844
H        -4.14975688392385    3.34466641850542   13.20335845891750
H        -3.20823856623466    1.85788307173640   13.39385165898497
C        -3.79676645264312    2.29867512174931   11.35051179061221
H        -3.77695276697993    3.14916978731711   10.66618241996607
H        -3.15126362780190    1.51133381404965   10.95885062838866
N         0.40725146346542    3.73396890993973   14.20357742594729
H         0.99779696948733    4.55095459244736   14.37239084466775
H         0.85149853546642    2.95150079551251   14.68576359021120
N        -2.12837355787381    3.54341769686167   12.80816373925363
N        -5.19334129011384    1.77704378320706   11.41714330691142
H        -5.24930084310606    0.98999555938486   12.07891289889355
H        -5.51768279830407    1.45465169619829   10.49539791027311
H        -5.83258256963225    2.51395760035773   11.74853828461951
O        -2.07463893694788    1.40865834228592   16.13805573915300
O        -0.67309801493098    5.48963071654199   17.71915025720651
O        -4.57452692089645    5.05579747370361   15.54369114900490
O        -1.18971678482294    5.92367678780668   13.86510629101095
O        -0.79294928632318    6.67776531982946   11.81308490095232
Re       -1.63557860215326    4.26073800237479   15.05148226878137

