63
CSD_code = KACCEZ | q = 0 | S = 0 | Stoichiometry = C26H20FeN14S2 | MND = 6
Fe        3.70551362261444    5.11816135223929    8.20183809461930
S         2.02999971191788    3.44385601120491    4.47301010326449
N         3.15031460835615    5.15269072759483    6.33687026985630
N         5.45475884718528    5.91914730659337    7.81135375843486
N         3.24597310506386    7.04323587743174    8.59514159992406
N         2.26240860877599    7.69812525308805    9.18988741564294
N         4.11475961728488    8.83375396125106    9.49855388357441
N         5.03448245684675    9.74778583111146    9.96116290429219
H         5.68757472898949    9.27538645691594   10.59019826793771
H         4.50516640413551   10.46166769658213   10.47926032773533
N         2.71821436270494   10.79216124163246   11.01374137787038
C         2.66907078607342    4.43942906963242    5.53706113981462
C         6.51898846065635    5.31112935604721    7.29680407321432
H         6.36574898645741    4.28710799679960    6.98951787209670
C         7.75271887162009    5.92726882192769    7.17950180934420
H         8.58551974816057    5.38542505888181    6.76026899502588
C         7.90324037209623    7.24047113305221    7.60867263791816
H         8.85400498995605    7.74446510241209    7.52938267047670
C         6.80613577703802    7.89011793943021    8.14395232395986
H         6.86284497985525    8.91209540881015    8.48314242824910
C         5.60216599898475    7.19845890455094    8.23041740807494
C         4.37541156032950    7.73417292626689    8.75369468689757
C         2.77243678715026    8.77811038145818    9.75229926667421
C         2.04107430338560    9.74139079417851   10.54303201905988
C         2.07750496915620   11.67430952561214   11.75846404996878
H         2.67786342130401   12.50133567197598   12.11408000941703
C         0.73245951611198   11.57014153962343   12.07355026703845
H         0.25365171366409   12.31860216799683   12.68440928359319
C         0.02427681208022   10.48031453437458   11.58258042053968
H        -1.02588008818986   10.36412338678663   11.80647492515859
C         0.68232533533760    9.54711771233318   10.80593464381970
H         0.18864505137976    8.68082519271801   10.39863564835570
S         5.38293159500931    6.79155906780192   11.92979632894520
N         4.26046540622079    5.08326783465305   10.06644123499010
N         1.95634139434861    4.31719612617785    8.59264427945116
N         4.16511930420337    3.19313007177573    7.80866690968207
N         5.14864046355785    2.53821245518012    7.21398570821383
N         3.29631393470327    1.40243539505435    6.90568601968180
N         2.37664175201413    0.48828645171271    6.44324626823415
H         1.72321078725055    0.96067604103111    5.81459425627272
H         2.90592185024856   -0.22538944751581    5.92485275043275
N         4.69285458374960   -0.55630859240687    5.39093712490742
C         4.74314927895707    5.79653333373679   10.86558316987093
C         0.89230985035241    4.92519312214867    9.10758501284999
H         1.04562371920837    5.94921419362652    9.41483247994129
C        -0.34137908768876    4.30902735250006    9.22522405101611
H        -1.17400609842886    4.85076361679640    9.64495441035395
C        -0.49206290750919    2.99597184211917    8.79568808614771
H        -1.44283853157616    2.49201181908559    8.87505770805238
C         0.60489045872869    2.34635353403313    8.26004317253862
H         0.54802629255890    1.32442821459161    7.92072346806395
C         1.80891174624386    3.03792812529489    8.17358772599325
C         3.03565854793085    2.50217318127514    7.65030027343467
C         4.63860252059149    1.45807451924708    6.65180823223963
C         5.36997404246867    0.49461742175112    5.86132532184591
C         5.33366738236775   -1.43888935667952    4.64681643015302
H         4.73332260822470   -2.26600541949262    4.29145011729580
C         6.67885052058927   -1.33511891609995    4.33220112181980
H         7.15783770609842   -2.08413874840386    3.72216233961141
C         7.38694294160102   -0.24495009944180    4.82257678410941
H         8.43714564099469   -0.12891258865325    4.59882562134606
C         6.72873948377808    0.68881143264384    5.59841938474539
H         7.22231838671667    1.55546367593568    6.00508962591110

