44
CSD_code = KACCUP | q = 0 | S = 0 | Stoichiometry = C9H21Cl2N3O5RuS3 | MND = 6
Ru       -0.16865200283240    3.05194624885677    5.05795842590113
S        -1.97255967579773    3.65833456603293    3.84069018192943
N         0.12092935580116    5.00842146327464    5.76615027301386
O        -0.57853872525861    7.31272074925744    9.08922370453425
C         1.28152600816318    6.85741569680960    6.08814708741337
H         1.99654625134308    7.62938082598893    5.88903057474834
Cl        1.75141854201769    2.56232759916351    6.31098323749126
S        -0.33378575347663    0.84391953571968    4.65802640450608
N         1.06317528889022    5.82454283405357    5.28027171227798
H         1.46453432952885    5.58892333769134    4.35058212611313
O         1.03175572883674    8.52428266410774    8.32630775906968
C         0.42478707509202    6.69671720472538    7.17108957781517
Cl       -1.63616080151867    2.59940881069943    6.81791501208755
S         1.21733783068173    3.26606870978420    3.21334819204944
O        -2.17430423201673    2.83158539220820    2.65489064283329
N         0.28467289584762    7.56927432135792    8.28061080235462
C        -0.28267521489141    5.50802020341577    6.91962039610504
H        -1.02247788516458    5.02306386273905    7.53090765011267
O         0.52652294953811    0.41981582012497    3.55965461260128
C        -3.59849966426812    3.83723316573055    4.63138080393890
H        -4.30293167584199    4.19729967026832    3.89094090425621
H        -3.48995606629347    4.52280684921307    5.46320025190131
H        -3.89553594976244    2.86358798955507    5.00453198710441
O         1.45264450157640    4.70752907862277    2.93761592359105
C        -1.82209037300084    5.37252425701092    3.23289122483070
H        -2.58963805660244    5.54088848705432    2.48631217321360
H        -0.83601915094480    5.48264002873545    2.78885703367838
H        -1.93843671378341    6.04496862998565    4.07497639280673
C         0.07206759030005   -0.20240689452892    6.07842843060994
H        -0.03509840672032   -1.23921811401426    5.78235058799446
H        -0.59934121223499    0.06498571561273    6.88738032172770
H         1.09768726161502    0.01718453299364    6.35981674863129
C        -1.99118787537536    0.18447782549620    4.32522725821360
H        -1.90652317942061   -0.87834779946984    4.13205894713200
H        -2.37973981435402    0.70024529613159    3.45261555560576
H        -2.60003949582526    0.38534913104961    5.19987609649410
C         2.86260461875693    2.51824395873444    3.29340662470441
H         3.42006783759549    2.82432792830400    2.41603094121049
H         2.71482078602235    1.44546334532199    3.33275562570183
H         3.34019047908593    2.86069186909828    4.20608560728269
C         0.71768557100131    2.60561563732568    1.60239335683693
H         1.32799881466901    3.09827596423554    0.85445121949495
H        -0.33471643365290    2.82494127098076    1.45240690712799
H         0.87013464266013    1.53422233056870    1.61960070295555

