74
CSD_code = KACDOI | q = 0 | S = 0 | Stoichiometry = C37H33ClP2Ru | MND = 8
Ru        7.22389627400821    4.35566101245361    2.24642018853932
Cl        5.20613513729582    3.41020102067551    1.40211906361138
P         8.66800333367080    3.71489176317478    0.61216531699503
P         7.38172512171281    2.57010053911307    3.63641244539545
C         8.36739959010598    5.97977459597550    3.23133888396534
H         9.33014309996001    5.95773373386483    3.72471562351377
C         7.10187155073107    5.92328568043451    3.88583253479015
H         6.95336900519587    5.79816847227685    4.95079243785173
C         6.10147274744538    6.20481599168184    2.93494126731084
H         5.04625859552634    6.33305424224456    3.13867574568213
C         6.73131333374303    6.44826446756687    1.68043551183460
H         6.24014965702919    6.82301324379770    0.79206324948215
C         8.13169861457869    6.33283648000311    1.87184268081559
C         9.17484361172007    6.50918791380864    0.80686952789723
H        10.15855919111533    6.59121966797624    1.27559646029396
H         8.99166433344087    7.44271286328888    0.26387193828920
C         9.13830742090645    5.33619230480819   -0.18466656429594
H        10.07854451754895    5.23150619553293   -0.73562001529121
H         8.33630925075090    5.50539904947094   -0.91383787641288
C         8.36117875907464    2.78890996402762   -0.93190648080053
C         7.06023491456688    2.45634527006578   -1.28871335916028
H         6.24550822633872    2.70762306403778   -0.62321951688065
C         6.81530653564507    1.81053721221335   -2.48911892575875
H         5.80246417241919    1.55029224149580   -2.75874205989997
C         7.86226281635542    1.50176650218852   -3.33994446827028
H         7.67153091860367    0.99653669997685   -4.27575159687393
C         9.16010921505402    1.84564243334979   -2.99343078445962
H         9.97819447820221    1.61231326628240   -3.66002497394925
C         9.41175571912151    2.48849765490489   -1.79683400313515
H        10.42609433868318    2.75101530649546   -1.52791383072842
C        10.27328055407098    2.99680159983993    1.10764526258766
C        11.27523747026869    3.78007338927948    1.67245371990230
H        11.12958754496150    4.84357389245609    1.78292543496586
C        12.45768634874225    3.20639006161052    2.10485144026431
H        13.23141151462472    3.82823564486039    2.53235252544036
C        12.64691352552117    1.83872201905952    1.99711905476509
H        13.56775109637003    1.39054676162401    2.34019817839290
C        11.64942343483895    1.04900838025363    1.44865443269895
H        11.78807034378234   -0.01875008443366    1.36366379227324
C        10.47180544120810    1.62169486267056    1.00626399754857
H         9.69959030442982    1.00508448959798    0.57041968571867
C         7.93706042297554    0.97236901260033    2.96178981222201
C         7.31564623825202    0.59182916434615    1.77399066506846
H         6.58047511127829    1.25494828206475    1.33334647600999
C         7.63328306228596   -0.61527361757329    1.18016541751732
H         7.15128492620338   -0.90553250622958    0.25796618143930
C         8.57578887472606   -1.44677929916212    1.76639400377876
H         8.83022152971024   -2.38857126792400    1.30180565463094
C         9.19070999305143   -1.07213616854873    2.94947276800893
H         9.92049406340050   -1.72358517437195    3.40898974704036
C         8.87299652302155    0.13266567572411    3.55335553181869
H         9.35159378109390    0.41555017771889    4.48062383501914
C         8.50263554798249    2.88297047902014    5.03613126532609
C         9.86714378285469    2.96355902796361    4.76988011906853
H        10.21680252247785    2.76458796648238    3.76683007598970
C        10.75688445892581    3.29272111381173    5.77381710900142
H        11.81469101263214    3.34510198944405    5.55876704638266
C        10.29089751820817    3.56089043742026    7.05192413553280
H        10.98451589964045    3.82419755349018    7.83710497260790
C         8.93374036987116    3.49612052465604    7.31936284639074
H         8.56869146186532    3.71014253962454    8.31365248029333
C         8.03948714450526    3.16026116716799    6.31737176998896
H         6.98028243657489    3.11038259454440    6.52996554428745
C         5.86466961290723    2.04639974815316    4.50830249499809
C         5.76033250358107    0.78366920905762    5.08416914866375
H         6.57402111573225    0.07838502842552    4.98658911264439
C         4.61460441845802    0.43322080325278    5.77404605033468
H         4.53463249282987   -0.54926711349650    6.21667968541222
C         3.56924332981935    1.33490046423521    5.89584405714640
H         2.67434901856957    1.05445317616429    6.43199957525287
C         3.67055321570378    2.59344222140052    5.32729989459901
H         2.85496636515703    3.29624855278661    5.41813695342489
C         4.81511366490110    2.94827673293548    4.63697354678803
H         4.89622552143175    3.92487163480541    4.17743607840156

