43
CSD_code = KACDID | q = 0 | S = 0 | Stoichiometry = C22H17ClN2Pt | MND = 4
C        -5.76773615295853    5.77233265999698    6.50416935009548
H        -6.81546906718731    5.85236057171084    6.25641671277287
C        -5.36697623486202    5.85068072155009    7.82777523821055
H        -6.10175587366759    5.99225267233979    8.60628743842380
C        -4.83505317763787    5.59350753889694    5.49675701376725
H        -5.15832055876642    5.53489752117862    4.46818414418383
C        -3.48351886260577    5.48944666458350    5.78702996763827
C        -4.02802827805387    5.75081091514189    8.16767272126198
C        -3.55582705706695    5.82890726267167    9.58524115297904
H        -4.37970364720023    6.06474521792357   10.25307882523095
H        -2.78409383517565    6.59089872507321    9.69000004044457
H        -3.12011924254368    4.87746180195331    9.89061746743274
C        -2.45330461013844    5.28502338580335    4.72659201702670
H        -2.89660724448471    5.35581808746761    3.73741474280077
H        -1.99017508637718    4.30351202275859    4.83400194982360
H        -1.65413759320885    6.02123213982290    4.81174101262933
Pt        1.25436900191493    5.50955961955967    7.57607047269516
Cl        1.04284358999047    6.47378436847381    5.44707869444385
N         3.26905258113484    5.60493612257198    7.52978514014883
C         1.59239658941489    4.69775344225079    9.39393830419707
C        -0.62574702374075    5.43699842987576    7.58970807405031
C         2.97964012470879    4.63083950227436    9.65882083330628
N        -1.78446964330669    5.48232658864028    7.44047282036647
C         3.85536504981368    5.12160795839341    8.65048712621175
C        -3.10011475213734    5.57059967890456    7.13389862761620
C         5.43382007034658    6.08691930058830    6.65907552673259
H         6.01153750909378    6.48241311524808    5.83862784648596
C         3.51494232463757    4.11006630085956   10.85354385734013
C         5.76328151243736    4.56340319499209   10.04975883996464
H         6.83506552113576    4.54462601125154   10.18507468668711
C         5.25281394339730    5.09630860701310    8.83037897656604
C         1.26375532135268    3.69658258896399   11.57866436370196
H         0.57370624306879    3.33146282834203   12.32674892204286
C         0.75360891282010    4.21862197764208   10.38394699280417
H        -0.31881451495719    4.23965559106486   10.24794546812776
C         6.04760653373501    5.60016737759069    7.79057276869043
H         7.12377875392224    5.60138802964027    7.88712715276937
C         2.61568464832146    3.63758742188001   11.82013963836366
H         2.99442156460169    3.23110056640337   12.74691925598549
C         4.04158796777196    6.07220571980786    6.56495773723263
H         3.54504473937308    6.45148614994809    5.68074539193780
C         4.93167586377043    4.09307313985232   11.01266278855788
H         5.33507408931077    3.69153845911393   11.93166989826114

