29
CSD_code = KACJAZ | q = 0 | S = 0 | Stoichiometry = C14H10FeO4 | MND = 7
Fe       -0.70169797529771    4.91652098161622    8.63169759385583
O        -1.26541463024033    2.11764016346890    8.09229071357934
O         0.60526010034359    4.38712276609435   11.20989247180804
O         1.56462365561731    4.78737639445127    6.77423617594861
O        -3.20112080627755    4.84050262755966   10.32326486889659
C        -1.06623586798860    3.23016305950664    8.27673135753340
C         0.09401844738673    4.62810853681754   10.21763201992368
C         0.65460832187063    4.88513245261862    7.46227978813890
C        -2.49092216161698    5.19216448600961    9.43443034397366
C        -2.64278865568600    5.96271516868497    8.21994947300851
C        -3.78374189002599    5.69923150323661    7.27646369303756
C        -1.66016183844572    6.93545338557523    7.97990699649043
C        -0.71995932630829    7.25644967511197    8.98881145109162
C         0.41086886778336    8.14740912850210    8.74775241119516
C         0.97400238800764    8.31592429155989    7.47986972322843
C         2.03568011892022    9.17753170761510    7.28862047071498
C         2.56657782137865    9.88244952836645    8.35722273364292
C         2.02921339452347    9.71489455407889    9.62307998061124
C         0.96581398559662    8.85553989748503    9.81690320119888
H        -4.19721345706690    4.70660475472165    7.43724479641709
H        -3.46896886362118    5.79090791253193    6.23781488947099
H        -4.57424465798343    6.42809609946730    7.46474781149752
H        -1.62259552632687    7.42853153109586    7.01299285369315
H        -1.07484230630702    7.27141209607797   10.01710667708257
H         0.59023375384511    7.75340133134369    6.64123775961468
H         2.45824817756894    9.29576402931474    6.30163688350512
H         3.39967274765774   10.55197972391918    8.20504339054236
H         2.44300760271495   10.25502702210636   10.46179841407512
H         0.55217857997665    8.72684519106300   10.80724105622280

