40
CSD_code = KACPAG | q = 0 | S = 0 | Stoichiometry = C14H17CrO7P | MND = 9
Cr       -1.76218169459617    9.48252340273346    3.24221443046475
P        -0.58034155481758    6.42575184497003    2.19109478024100
O        -1.97778735407815   12.42815824143195    3.61374357320378
O         0.97422015777398   10.19655536619621    2.33363005931865
O        -2.11544626250732   10.38403866599583    0.43365953436000
O         0.76338183202546    6.13114111450809    2.69999469221560
O        -3.41097509516651    6.99861048227963    1.83868766898912
O        -1.31635178747203    5.12579359962242    1.58479981090379
O        -0.66239238784386    7.48186515297338    0.99763747903493
C        -1.91409391709740   11.27822305470183    3.51275258716199
C        -0.06206670259599    9.90492852634917    2.74419169339165
C        -2.02200053302892   10.00293492377745    1.52029710799796
C        -1.67015925199062    7.24727291313016    3.36168671162135
C        -2.97474968055872    7.59215932941294    2.96837100893440
C        -3.73544576460591    8.45017712775366    3.78769646797547
H        -4.76433508719990    8.68095007767119    3.54510434020510
C        -3.16057431818696    8.97005617529638    4.95541693289730
H        -3.76664279285748    9.59214048973325    5.60410150272463
C        -1.86702055485692    8.60092793177271    5.36437292232854
H        -1.47406247477457    8.95019775284904    6.30999809794938
C        -1.11131698549444    7.77129872827241    4.53549764444826
H        -0.11243910986530    7.45016834767016    4.80932834570320
C        -4.53353823361439    7.54100692665668    1.17699611235033
H        -5.45970589435040    7.35069205059203    1.73012421293354
H        -4.58012708164936    7.03122963253130    0.21679130870796
H        -4.41043846779852    8.61616320025941    1.01409993151193
C        -1.08632833952424    3.88814164005543    2.23405676735379
H        -1.41801322657112    3.11957808148138    1.53034544512236
H        -0.01281138119939    3.77517876468854    2.42191124045824
C        -1.85179582267958    3.79568351525630    3.54343159871312
H        -1.46654915095521    4.53834255854588    4.24069146715885
H        -1.73208702807218    2.80683430645426    3.97837926243627
H        -2.90891612433510    3.98630988695048    3.37226717643637
C         0.41513594013806    7.54590967166594    0.06587680968560
H         1.35861169811373    7.44106911688119    0.61161655684421
H         0.35565617878369    8.54686903527748   -0.36889461738093
C         0.29868843957011    6.47237193650902   -1.00111050786180
H         0.38646224870160    5.48951074234423   -0.54366440172836
H         1.08875731155260    6.59653224545833   -1.73705355959271
H        -0.66681974631427    6.54230343928939   -1.49554219522023

