31
CSD_code = KACRAH | q = 0 | S = 0 | Stoichiometry = C5H15B9CoN | MND = 11
Co        7.46480864715718    3.52859207564954    8.31408546296486
N         8.26538765074110    4.74520878994658    9.57723594434120
B         8.23237334541269    1.69538396811911    8.46796586462183
B         9.57910642931296    4.43599844220109    8.89554369222923
B         9.51404485825802    2.78625266127670    8.22015304770872
B         7.65640391074428    2.15880071796985   10.00054849091855
B         7.74567257455096    3.81673991401269   10.65178295989802
B         9.43448303234750    4.38713723113460   10.67156438922017
B         9.40637555612729    1.66578642666098    9.68284784195969
B        10.32999705932122    3.15832397180835    9.80618736076934
B         9.04110406487087    2.72313578754054   11.04120830642432
C         6.95334875892553    4.56161849973381    6.43448761119423
C         6.75549541791181    3.16584656355062    6.40067058102674
C         5.75313481085435    2.84218325620875    7.36298217518355
C         5.34515855805122    4.04071473677713    7.98246394443322
C         6.10467130744826    5.08761545968958    7.42621011532775
H         7.91614161179134    5.69590413998159    9.54912186004827
H         7.87949556176278    0.80751715091205    7.78820568277658
H        10.08505178567653    5.33129182455133    8.31624275082249
H        10.10376106764911    2.65994409784059    7.20673984631759
H         6.75218210266336    1.52781242436659   10.41893248153737
H         6.90968906570319    4.25938194752280   11.35838221068610
H         9.78727615277181    5.27698827523750   11.35373265747622
H         9.90699847110296    0.61023966595165    9.83313732465295
H        11.49786270017669    3.05121989497349    9.90679512983354
H         9.19007948321924    2.27149563405484   12.11823044031011
H         7.57836586509198    5.13215190727216    5.76931693507733
H         7.15528526980128    2.49216947121160    5.66202690778799
H         5.27680502576548    1.88276338262424    7.47324718862424
H         4.54292182075551    4.14947290567298    8.69241790836682
H         5.98681803403350    6.13650877554661    7.65483288746110

