103
CSD_code = KACVOB | q = 0 | S = 0 | Stoichiometry = C52H41CuN8O | MND = 4
Cu       23.32917967157302    4.38755682900553    8.54531396033498
O        32.07452389269464    7.40082943552150    9.94443995387580
N        24.26935410865384    5.00738007058788    6.87872009412869
N        21.60548185058847    4.20208881923989    7.50805284132129
N        22.39352452012350    3.72581116733093   10.20317771138008
N        25.05169451330611    4.61159905328968    9.58660030292199
N        28.56651285424895    7.16172203083234    9.93296836424372
N        29.49035870294306    5.08044294130569   10.52056194973212
N        30.72730318797752    5.63370858725326   10.45119832169635
N        29.81723849343534    7.68048557347668    9.89959668051385
C        25.57570329420896    5.36909378156520    6.77261230868961
C        25.88031238522086    5.68562983808756    5.40568553814287
H        26.84455656276276    5.98260180064582    5.04343621330590
C        24.73597091218929    5.52961279849118    4.70211318864780
H        24.57279902700654    5.69564865723511    3.65554102548249
C        23.73291242396164    5.09715060007504    5.63251862114951
C        22.02288811612432    5.01418819195934    3.86093044859863
C        22.56083579174733    4.19461471791824    2.87289344372614
H        23.26280578437014    3.42171793432929    3.15104208009720
C        22.19192367883323    4.35511165315792    1.55184597617124
H        22.61360538816223    3.70750589761528    0.79606599031079
C        21.28300713342369    5.33904824747529    1.17714382100618
C        20.90042630642242    5.50448891726123   -0.26203180168256
H        20.13725309275709    6.26987989688795   -0.37762818303254
H        20.51909088520679    4.56710015391855   -0.66482330569713
H        21.76981865098052    5.79002690150244   -0.85374276599640
C        20.75027623099730    6.15605990874107    2.16500426049493
H        20.04386744886760    6.92854972581509    1.89546541485207
C        21.11067417373595    5.99569471039535    3.49060574561039
H        20.69172245985195    6.64204057670098    4.24834768029196
C        22.41140178703689    4.84252377926509    5.27695292210387
C        21.43664443046232    4.42374901783473    6.17746924626426
C        20.09017213295594    4.10206977584771    5.79828900944244
H        19.70098111574893    4.16798899442433    4.80134523763589
C        19.45545337159261    3.69157705687909    6.91982964916413
H        18.44339188733280    3.35301997580107    7.02403834958601
C        20.41330700911331    3.75792287863738    7.98677866725440
C        20.14152193861235    3.35572364492012    9.29114257947898
C        18.76837585774262    2.91066128277533    9.60905297450792
C        17.70410165097485    3.80386792029411    9.53887811290554
H        17.89253022639273    4.82980138848144    9.25710091280619
C        16.41966410484785    3.39040921986499    9.83682545163175
H        15.60486748095812    4.09856119457777    9.78195894729977
C        16.15965902519645    2.07577492058248   10.20460086150318
C        14.76867819542358    1.63636783915964   10.54639125380730
H        14.57996458825957    1.79226444499282   11.60933325286742
H        14.63135992870187    0.57894626119128   10.33240644399362
H        14.03213985857104    2.20938698401653    9.98768858420699
C        17.22418625190815    1.18498109794189   10.26839703500752
H        17.04163069404582    0.15676244361443   10.54742262103878
C        18.51200509242322    1.59424061160148    9.97808032464520
H        19.32866982239852    0.88814657301433   10.02286106114735
C        21.09438567707887    3.33787156438933   10.30577742449442
C        20.81969310813641    2.91026988080068   11.64783816214689
H        19.86699483249065    2.56767984950087   12.00069252510261
C        21.97327631865358    3.03610236897217   12.34255121799986
H        22.15785448720298    2.79403040148135   13.37050841900867
C        22.95078975966487    3.56253940107564   11.43283562143812
C        24.26043873265688    3.86171642966489   11.79501925245818
C        24.66949785984841    3.63562553666737   13.19678702285027
C        24.45796870778605    4.12400709648838   15.54480104253941
H        23.98718012952439    4.68247553177457   16.34165719586509
C        25.44789823238275    3.19717398781809   15.85374551818465
C        26.04425732489089    2.49711308519318   14.81355009320331
H        26.81535026719368    1.77172193408879   15.03139329257697
C        25.66562180491157    2.71436803584553   13.50147798463478
H        26.13574875228619    2.15987322217532   12.70244902974347
C        24.06994383625372    4.33996372201006   14.23709555778930
H        23.30531712622703    5.06921339248082   14.01117231487851
C        25.85978931552139    2.97776011888033   17.27754494440683
H        26.36064486274146    3.86485578159584   17.66527373501010
H        26.54038634082315    2.13428060591312   17.36132917930707
H        24.98871008972385    2.78909646668611   17.90312119997035
C        25.20844043546918    4.38129192378620   10.91628375868068
C        26.51523050606794    4.79294666694196   11.32895226950677
H        26.89339549954533    4.75316449193949   12.33089547837507
C        27.14631549190142    5.27798663539548   10.22871528620128
C        26.22098319717452    5.13467068335324    9.12931643826630
C        26.50944050029749    5.44770094820401    7.80341834866718
C        28.48385014198171    5.87314956185635   10.20923452822291
C        30.95966103924208    6.93754599678516   10.08267729035159
C        27.88220347008654    5.86021708301703    7.44380601951436
C        28.93569315278639    4.95795434070510    7.55438235193100
H        28.74003943419942    3.95395233748985    7.90261519390247
C        30.22337377521511    5.34275033430027    7.23079423079740
H        31.03351816644564    4.63327963759645    7.32727449576183
C        30.49723465756802    6.63244401914630    6.78938198189082
C        31.90484285198759    7.05651724603430    6.50640548916152
H        32.46270809472215    6.25604235575660    6.02489307123921
H        32.40831021030460    7.29799510755014    7.44389520797055
H        31.92754789740378    7.93796426466319    5.87002520357224
C        29.43757554302997    7.52145447265925    6.65783712926832
H        29.62805855908005    8.52623079448679    6.30718128070441
C        28.14688741922658    7.14321355034070    6.97808688238891
H        27.33488884739711    7.85009829987242    6.88929718098222
C        29.91598118669100    9.08494958402220    9.60100375912929
H        30.85122526102398    9.26305585130469    9.07295422887314
H        29.90873424742004    9.67092546807846   10.52348538747565
H        29.06117315453884    9.36192775930385    8.98922006569840
C        31.82819980409249    4.74246426360093   10.70802863340781
H        31.77226581863789    3.88716877808530   10.03383735163493
H        31.77898251637975    4.38290344632927   11.73682005633029
H        32.75066356103687    5.29575896051017   10.54556128786340

