96
CSD_code = KACWAM | q = 0 | S = 0 | Stoichiometry = C36H57P2Rh | MND = 7
Rh       -0.01527904991888   -0.38455880539044    4.47851551150102
P         1.97263417244667   -0.36445772245919    3.47008791033398
P         1.04112599366577   -1.18935260200703    6.26784430178545
C        -2.13910617620205   -0.04799060755178    5.08916937500199
C        -1.73093384520758    0.98572111589913    4.21049221243932
C        -1.37690840944317    0.40053074087507    2.96778910776283
C        -1.90522020444603   -0.95248027491582    2.95514328527710
C        -2.02523462691502   -1.90649260601101    1.94905931358493
C        -2.63336026329870   -3.11332671195775    2.24475107980783
C        -3.11767614719018   -3.37995320658529    3.52243595946767
C        -2.99701544386909   -2.45376693731477    4.54327797487223
C        -2.38306296454208   -1.23374224132395    4.27356304820742
C        -2.77580142113990    0.17696468257264    6.43256282139524
C         3.27181530191058   -1.17706662783445    4.53732254004447
C         2.89190942991420   -1.14744949545335    6.01497980984882
C         2.18045391867654   -1.23892490367590    1.83809412564799
C         3.59909495422107   -1.33048143386095    1.28170364528348
C         3.57295510836258   -1.99927556717487   -0.09276366226259
C         2.93660995199834   -3.38399278405501   -0.01319412215984
C         1.52448795560011   -3.29099931260747    0.55822494286880
C         1.55709982460902   -2.63037414247136    1.93191530935989
C         2.76217290099126    1.29630825213086    3.13719267887320
C         2.01393928577270    2.02590794687375    2.02459046509578
C         2.53630898252900    3.44827698750753    1.84209815465268
C         2.40924338048379    4.23479571501192    3.14142596569897
C         3.18286841815095    3.53025213019657    4.24944511401175
C         2.67680091462471    2.10327704968144    4.43086016531025
C         0.85319546400468   -0.32614480541048    7.90902905881624
C         0.97394830747878    1.18095179222656    7.69241600874185
C         0.61898880154528    1.93042840332019    8.97196051828147
C         1.53170993903557    1.48276527061315   10.11072671624239
C         1.42716814923425   -0.02529828310633   10.32057765326477
C         1.77650642434414   -0.77806217942083    9.03676631877964
C         0.76487255514402   -2.98158491019029    6.71410975496722
C        -0.61198345877500   -3.16351922811521    7.34672514251704
C        -0.95366015347158   -4.63914140793865    7.53548014712838
C        -0.89481729064728   -5.37890110413072    6.20440766161849
C         0.49749626928095   -5.24113720381516    5.60146943201347
C         0.84273383312295   -3.76946275236499    5.40758975698599
H        -1.68329926408755    2.03937503945694    4.45643007700762
H        -1.16434466198231    0.95441900001775    2.06206551450020
H        -1.66684131765718   -1.69913110096262    0.94958760430835
H        -2.74719389014166   -3.85810230813548    1.46969033521278
H        -3.60772164594061   -4.32461840513082    3.71475383873485
H        -3.39578512818604   -2.66912511728341    5.52584412570898
H        -3.85527754186276    0.29669915599550    6.31031503517232
H        -2.38282254555124    1.07721982751136    6.90218196903408
H        -2.60765596604179   -0.66542724322402    7.10119069273045
H         4.24456619463110   -0.70398147431516    4.37461959130196
H         3.34250087342057   -2.21250157077373    4.19802626147975
H         3.36276818757245   -1.97362198964934    6.55553337547143
H         3.23856011458328   -0.21382424006778    6.46286778566118
H         1.56324760647398   -0.65423595573426    1.14241902868507
H         4.22480715172375   -1.91980221494379    1.95512866427887
H         4.04270606489921   -0.33745070590987    1.18989105811124
H         4.59029987708968   -2.07906205591808   -0.48309297902100
H         2.99838990174343   -1.37822080894708   -0.78443605960620
H         3.54489123527613   -4.02496199219125    0.62976331888865
H         2.91041218985840   -3.83688936903686   -1.00658114952258
H         1.08534935683503   -4.28764342863611    0.63583141190465
H         0.89822986878423   -2.70157597994408   -0.11516838502733
H         0.54504857465105   -2.54529221941838    2.33899134410672
H         2.14075324064962   -3.25647881841189    2.61015659441103
H         3.81379234240443    1.16074866135008    2.85651679084422
H         0.95457029536843    2.06018630820662    2.29174307252998
H         2.11137325354975    1.48419844515575    1.08171232090353
H         1.97700689605164    3.94581206428606    1.04662553325874
H         3.58656970362730    3.41439781780280    1.54011221337613
H         1.35604515984721    4.30181939142510    3.42201605475099
H         2.78744415518577    5.25025917244157    3.00529073406583
H         3.07818282158252    4.07940663024598    5.18782751930268
H         4.24512602753591    3.50986735973151    3.99126232054356
H         3.25916182583090    1.60902651644633    5.21044212823470
H         1.62786220367284    2.11558015700035    4.75152428265952
H        -0.18558427159582   -0.52659268299513    8.20224039446503
H         0.31016236771439    1.47490752416696    6.87181434274942
H         1.99536496507290    1.43665467779319    7.40277620994803
H        -0.42044412730584    1.72569874693289    9.23935895330803
H         0.71925947812909    3.00674233208874    8.81578913085582
H         1.26377798101207    2.00434238978161   11.03198300579301
H         2.56500641891464    1.74293449732577    9.86835596345549
H         0.40719513560419   -0.27750247847333   10.62107859287926
H         2.09804042960396   -0.33585128224644   11.12492370082618
H         2.81583303739697   -0.57155399757832    8.77403611520066
H         1.67808323890347   -1.85190788838884    9.20660038594063
H         1.54598440503722   -3.32585762911290    7.40352679582740
H        -1.34954356857686   -2.70419323156108    6.68485915429751
H        -0.65482314710153   -2.66217708173399    8.31618935010943
H        -1.95130275763490   -4.73027648910153    7.97139857250651
H        -0.24321605273230   -5.09082026708281    8.23369655396605
H        -1.62590532064233   -4.94909371534697    5.51719614232680
H        -1.14121828376442   -6.43303882480117    6.34937382142953
H         0.54287478245425   -5.75717809873332    4.64004757750612
H         1.23055329755592   -5.70583924170612    6.26711517072090
H         1.84671555609718   -3.68137437245253    4.98826526376358
H         0.13928249237319   -3.31893366498396    4.69604757505620

