45
CSD_code = KADCOI | q = -1 | S = 0 | Stoichiometry = C4H22B18Co(1-) | MND = 10
Co       -1.21626504371579    4.49083344928436    8.85831025635374
B        -2.60518027152893    3.41027615163783    7.74411707520181
H        -3.70914857529363    3.80498761637668    7.93065335387693
B        -1.56721467902041    2.46078742769449    8.80499969917519
H        -1.89866766750223    1.97897254445394    9.83053901719456
B         0.07317978427087    2.97253112549166    8.39670622914203
H         1.05183638331746    2.99059812417392    9.05623719632266
B        -2.26257048928371    1.72867808071008    7.31459960460109
H        -3.08489330087437    0.87715103823030    7.38929174245936
C        -0.10783805058170    4.06458257405267    7.15354389781715
H         0.57924087494384    4.89365441520010    6.99821454900021
B        -0.55474143516685    1.45047653034840    7.72878715094715
H        -0.14921235655061    0.39606555095233    8.08810701316791
C        -1.59260981107694    4.30201450830162    6.79556509208140
H        -1.85994117673505    5.28979431208060    6.41886786176417
B         0.41232618840451    2.50833289648930    6.69887362246392
H         1.54141335928507    2.36207658827070    6.37086719262279
C        -0.98780602736278    6.58196586314973    8.94203250904317
H        -0.82487060699663    6.93541867124250    7.92341596723328
B        -0.66703026825718    3.40219082876538    5.65557461246224
H        -0.33896773796987    3.95771434107051    4.66100144339097
C        -2.41856275613194    6.12489665399961    9.30682549458656
H        -3.17552379203170    6.19353579108772    8.52844788356599
B        -2.30574341163037    2.94114387579235    6.04150588256773
H        -3.16085578616491    3.12731184121809    5.24048108226933
B        -1.02368636338956    1.72050688831325    6.02677389092104
H        -0.95852883976292    0.87704960034492    5.19561846610056
B        -2.42091874240238    4.91900044677765   10.45419171554168
H        -3.34421665091705    4.18833820716355   10.53608420342477
B        -0.72027741518607    4.65580521947995   10.85176324968919
H        -0.27551766515362    3.67900489055736   11.34346589420313
B         0.15883674809019    5.74991676722373    9.78654105900087
H         1.24142722348293    5.62952150062923    9.31449411111826
B        -2.85482491511434    6.60504316413828   10.88115123408033
H        -3.99182715507363    6.85409995265248   11.10252269528519
B        -1.73480801222092    5.69548194572625   11.89761897908930
H        -2.03146456181886    5.35184582616439   12.99272818792874
B        -0.08961043473865    6.22337150093644   11.47284493292080
H         0.79720558757229    6.24607699038802   12.26018959028380
B        -0.23563681035887    7.44380085470235   10.21507865793214
H         0.53868745561814    8.29757603313788    9.93402200313247
B        -1.92909835843452    7.68695585487822    9.86877503637684
H        -2.37360090304483    8.63005339139546    9.30449506341124
B        -1.42030959387479    7.41471372882140   11.53015154849245
H        -1.48648393961888    8.27364643649398   12.34522405175600

