79
CSD_code = KADGUS | q = 0 | S = 0 | Stoichiometry = C39H34Cl2NOPPd | MND = 4
Pd        6.39884563710086    4.44940081899647    7.33032574944439
Cl        6.54155942525199    4.95258702080354    5.14725471526500
Cl        6.07821447894405    2.24615768513298    6.85882768946420
P         6.41404037125159    6.67249354970076    7.62620847952432
O         5.16043984798015    3.39229199548331   11.10388736615449
N         6.33099152017723    3.90701667259113    9.28894523638150
C         5.68026605564405    6.97294707146767   10.30371591317692
C         6.63559603416818    7.25751742330707    9.34221926338050
C         7.87505200723747    7.80751521777499    9.73256843057021
H         8.61201003015931    8.01823369579880    8.96981425576122
C         8.14206591081994    8.07619330371128   11.04333606852602
H         9.09007586682330    8.50669584603925   11.33191213590900
C         7.46248858183354    8.00982186076911   13.41354287466536
H         8.41666806047332    8.43555772435271   13.68878295661764
C         6.53612208667822    7.69630854641487   14.36792958584176
H         6.74733727271656    7.87266374988477   15.41218229752850
C         5.30171869627432    7.13889810270526   13.99842648811719
H         4.58143238093002    6.89240857439901   14.76424003049093
C         5.01028693502851    6.90755485170464   12.68378958716595
H         4.06207817469111    6.47527188065241   12.40003943828486
C         5.94608835726209    7.22138629139126   11.67323855317710
C         7.19712950139200    7.77968115922029   12.04813976112898
C         4.36696833698926    6.42129473932012    9.89407951500294
C         4.21850327127120    5.07098541190262    9.65411757307014
C         3.00635619825719    4.54900012652811    9.15907377171705
H         2.94371974883193    3.49166523453608    8.94719520096988
C         1.94395070218905    5.37829404631073    8.94533421441329
H         1.01860314558823    4.98995157297709    8.54691815242451
C         0.90664392450888    7.60334718643670    9.15018231473862
H        -0.01764523088451    7.19336344143616    8.77001182622059
C         0.98834357295834    8.91802312954942    9.51332889875646
H         0.12793104321788    9.56417098286430    9.42237655497465
C         2.19164763874217    9.43801777776600   10.01195321566915
H         2.23983947898749   10.47614550628069   10.30570197777319
C         3.29687893569823    8.64182505828616   10.12340312705986
H         4.22284878692136    9.04433778849880   10.50696330760275
C         3.24279814617606    7.27924295108139    9.76207991086555
C         2.02003083780839    6.74780160198423    9.27670671534649
C         4.81101379940136    7.35452722015519    7.10281990903344
C         4.45226285882664    8.68441066000217    7.30499978119361
H         5.11203334614611    9.34839553896969    7.84659157153599
C         3.23462667256301    9.14902308600653    6.84376969927358
H         2.96501586218031   10.18459822457724    6.99145060741613
C         2.35768964021863    8.28875405974285    6.20439130066304
H         1.40970496287692    8.65871300932464    5.84299835715785
C         2.69043077838921    6.95407360359979    6.04192989508409
H         1.99850020779352    6.27833518156750    5.56197454283951
C         3.91130993758583    6.48459074844997    6.49016623267565
H         4.17510537740652    5.43065369734358    6.36269105141236
C         7.70088063011883    7.55517865238733    6.68476228473462
C         8.83077693175307    6.81091596137187    6.34824327959034
H         8.86982191857035    5.75576903901103    6.60730893160413
C         9.86852716409458    7.39268740533414    5.64556172087122
H        10.73638861133494    6.80634137861987    5.38324338571462
C         9.78568078641091    8.72214013149923    5.26374672204540
H        10.59188716851379    9.17738400427462    4.70782276085328
C         8.65877079979182    9.46123358143400    5.58008272573940
H         8.58381364217815   10.49296215144885    5.26854933196803
C         7.61814155731551    8.88463297552732    6.28797960417251
H         6.74008388947433    9.47015015805435    6.50941383970673
C         5.29245765297575    4.11962824473747    9.98776394922391
C         7.10852058082306    2.83708250404832    9.89098065086552
H         7.09193095822508    1.99757232313687    9.18171736027116
C         6.28103780935290    2.50537884808938   11.15625753237522
H         5.90528706011362    1.47973273264438   11.15377103785485
H         6.81508480763825    2.69288109991816   12.08987892947886
C         8.58488248129084    3.23869249693071   10.10855497023119
C         8.72431940852824    4.33395180610025   11.17070318790569
H         9.73424724794748    4.73658686321602   11.15124495338816
H         8.53945776007926    3.95419116232361   12.17296309520016
H         8.02964789869839    5.14884175472330   10.97499003375547
C         9.13680985848085    3.77097466424464    8.77768621414870
H        10.22479079555314    3.75814455863945    8.79129872774410
H         8.81045994601516    4.80891101796195    8.63772244851685
H         8.79500292225689    3.15578044115598    7.93309078691802
C         9.36456054628757    1.99013686022039   10.52618921599202
H        10.40153178457127    2.24715503485407   10.72840014871276
H         9.34183317213874    1.24731222761595    9.73279116906730
H         8.94054499596747    1.54620529267075   11.42414489987782

