79
CSD_code = KADGOM | q = 0 | S = 0 | Stoichiometry = C39H34Cl2NOPPd | MND = 4
Pd        0.19563413195011    2.95492706519989    5.61548689051662
Cl        0.89458932680687    1.01366381348766    6.49264112295602
Cl       -1.97133091917828    2.29277432174152    5.83290874563276
P         2.36316369424567    3.27860424334666    5.05193781031105
O        -0.42564303202041    6.34774337489554    3.41245823030120
N        -0.31179245271182    4.88806278178924    5.08315883919133
C         2.32316765290238    5.05766641163587    2.91567956638024
C         2.84351819186286    4.81542734448305    4.17793987744488
C         3.68409072760922    5.76880297553763    4.78456922107395
H         4.06959622242108    5.56779477746294    5.77498231021732
C         4.01206588570301    6.92308670033136    4.13310582852191
H         4.66272221927141    7.64852875567533    4.60056539968419
C         3.82408450434427    8.38430742446963    2.15482969003009
H         4.48666100967166    9.09490265274573    2.62808382643656
C         3.30298844821791    8.63355805763326    0.91659164679517
H         3.55031227195455    9.54601798337259    0.39449610967056
C         2.43656307701258    7.70753712255952    0.31374250716163
H         2.02669632986985    7.92353000465742   -0.66162309295765
C         2.11169625803900    6.54436273508337    0.95207897348220
H         1.44249534404008    5.83262245564933    0.49225988892796
C         2.64303339958509    6.25213517407699    2.22749026372748
C         3.50714885079154    7.19541660143096    2.84446651070374
C         1.37639756757684    4.07156802290527    2.34122665465721
C         0.10228818344448    4.02783928051107    2.87630694672629
C        -0.80101204295132    2.99353302095919    2.55185259643945
H        -1.77368402597919    2.96841776309681    3.02670294525863
C        -0.43447571458803    2.05918422833366    1.62315849381175
H        -1.10818546986118    1.25510827663905    1.36737098075720
C         1.17588191272581    1.21483238515476   -0.03976824749499
H         0.46855464610273    0.44612325877324   -0.31460781324255
C         2.39065882307615    1.29725542233460   -0.66040225606083
H         2.65647413824542    0.59272730842637   -1.43429898730741
C         3.30421464664398    2.29740967518416   -0.29683718559438
H         4.25985446424925    2.35064357818061   -0.79667678853933
C         2.99268388061240    3.19659001728784    0.68396096766173
H         3.69479383177264    3.96768776793256    0.96510678746297
C         1.74273356378588    3.14410249052428    1.33392244219540
C         0.81513036440599    2.13227058959220    0.96805145491544
C         3.37059464475775    3.25984084112607    6.56663416424474
C         4.69512161976383    2.84873633632130    6.65393454141553
H         5.22075229392771    2.50728287259103    5.77536134615779
C         5.33573219186490    2.84974573416094    7.88126664914783
H         6.36268311130844    2.52141749638410    7.94673372603950
C         4.66504911475411    3.25550346277856    9.02257968574640
H         5.17043751562705    3.24699937394153    9.97686087466085
C         3.33885391293071    3.65088880427521    8.94380656844221
H         2.80728525185493    3.94491912569947    9.83656506799183
C         2.69276904774391    3.64700673336595    7.72266028259634
H         1.63503567066907    3.91421350616013    7.65349383855859
C         3.07554153650726    2.03826485438403    3.92959651792613
C         4.35663028640835    2.19401215373375    3.40647340300185
H         4.93409502228952    3.07909055784669    3.63998845438688
C         4.87834949626515    1.22873048049130    2.56588209537142
H         5.87718262139686    1.34426952822823    2.17041883520089
C         4.11999547605866    0.12074118041435    2.22432921209371
H         4.53355029236323   -0.63234320012025    1.57002914882207
C         2.82882937402795   -0.01229983822013    2.70616226745688
H         2.23008046386689   -0.86404224151067    2.42090784390172
C         2.30275676610737    0.94488616843359    3.55443999173620
H         1.28922684291669    0.85042721288413    3.93556885426760
C        -0.25393079144501    5.08884202752254    3.83088727559180
C        -0.47217960343201    6.15942861043272    5.76682887095855
H         0.49029215369424    6.38279409418706    6.25561385039182
C        -0.69445331897422    7.12891670195774    4.57954364441436
H        -1.72447761342644    7.48959228235055    4.51391936737165
H        -0.01095585297831    7.97942523991129    4.58704786106318
C        -1.55746398666586    6.13373223130308    6.86527867955834
C        -1.07969627452306    5.18442851763200    7.97171942652309
H        -1.85293355919992    5.07877104882227    8.72803955961569
H        -0.18053591882330    5.57362579743532    8.44935121050191
H        -0.87386032247047    4.18043984087149    7.56547663230861
C        -2.89286910211653    5.63872570724633    6.31164243754358
H        -3.64982606801164    5.68008521516349    7.09036345115053
H        -2.80264509568526    4.60470333345947    5.98133886485585
H        -3.23443337147354    6.24845425173022    5.47754834347287
C        -1.70670767026679    7.54423804126159    7.44393508497859
H        -0.74804295820150    7.92477408869875    7.79137397214833
H        -2.39115429624111    7.52144357022569    8.28802914584463
H        -2.10304881481372    8.23692239331080    6.70534979468536

