61
CSD_code = KADHUV | q = 0 | S = 0 | Stoichiometry = C30H24NiO2S4 | MND = 4
Ni        2.68992862429389    0.77083121153973    0.79364828117851
S         1.56843412525739    0.72864817649470   -1.03578765759940
S         3.21504263086668   -1.29245857568212    0.54282884930970
S         3.85096060920681    0.82935003195678    2.59850293429355
S         2.08308538957275    2.80481594341513    1.09455932426088
O        -0.70943565286190   -1.80589436930892   -6.60776213612189
O         6.62404680893087    3.73844381310778    7.79748884601622
C         1.71548447509389   -0.87262595225267   -1.63290414764667
C         2.41855030739557   -1.80096272431554   -0.88682924701617
C         1.11087321729204   -1.14307044801355   -2.93315715500856
C        -0.11976702629224   -0.57276377361526   -3.26932908412111
H        -0.62443683407107    0.05278999633907   -2.54871839408037
C        -0.69624481338312   -0.81558262399242   -4.49320357997646
H        -1.65193164071195   -0.38937618784072   -4.75355282625119
C         1.18795595764860   -2.17288813971460   -5.11714659142670
H         1.72366284976287   -2.78363184755756   -5.82645556558938
C         1.75729384665566   -1.93328426418177   -3.88177294984399
H         2.72776868825854   -2.35041710757998   -3.65958892740431
C        -0.05233993603208   -1.62454471315458   -5.43371678255187
C        -0.11613623278313   -2.60860665669840   -7.59978729032361
H        -0.81928445689885   -2.61638643348658   -8.43105101913324
H         0.03934506842357   -3.63347247795910   -7.24796670839862
H         0.83762444941831   -2.19057568665926   -7.93708697224871
C         2.49011147004294   -3.22959169301464   -1.19423014135377
C         3.68945545671335   -3.92043456269994   -1.02922144934144
H         4.56546138345135   -3.38171117799770   -0.69957754508053
C         3.76002634460205   -5.27360108946539   -1.29891746583757
H         4.69728266427520   -5.79615423240933   -1.17708206042446
C         2.63311578525756   -5.95828865819606   -1.72287181850863
H         2.68833116027463   -7.01636409896830   -1.93165533625639
C         1.43137151319714   -5.28332609558880   -1.86793599017758
H         0.54596728172365   -5.81692781939000   -2.18072593546235
C         1.35526230764378   -3.92941251056732   -1.60624521673621
H         0.41358144559099   -3.41038609029507   -1.70309029179356
C         3.63421898658936    2.40618707535557    3.23758809741266
C         2.78733482343026    3.28164739112170    2.58169265018105
C         2.38876902516559    4.59078829170795    3.09852576849186
C         2.06910616119633    4.75847772159155    4.44653340792230
H         2.11693132252611    3.91286042306615    5.11586315810303
C         1.67455109925918    5.99491916339579    4.91811667675128
H         1.42692423281843    6.11339548161634    5.96252875427445
C         1.59005192648084    7.07797406358442    4.05772926884643
H         1.28511065754926    8.04388322229184    4.43173439194774
C         1.88798864603570    6.91513476297221    2.71489504819485
H         1.81414848987453    7.75362920212939    2.03842037836613
C         2.27802880409114    5.67959048166660    2.23535735587655
H         2.51243651629517    5.54771464593698    1.18947382651951
C         4.58267092842952    1.79411831658219    5.43761177171887
H         4.13097220665793    0.81933897838850    5.32876991502275
C         4.40347026058089    2.74009106702353    4.43176893893624
C         5.00987739796123    3.99189231414557    4.57926330244188
H         4.91895305168266    4.72759626375183    3.79513728004466
C         5.74225677613409    4.28410867058116    5.70477429227691
H         6.21700690309137    5.24493823950020    5.82400244509728
C         5.89478013032087    3.33909173694727    6.72425166534011
C         5.30982888836036    2.08492137692792    6.57550266794590
H         5.41312202380830    1.32783113574108    7.33657769463498
C         6.82815073871287    2.82952110375946    8.85282489311628
H         7.43379504410408    3.36041902037342    9.58543451352861
H         7.36653040458300    1.93791754299109    8.51665977535389
H         5.88153728628287    2.53117314493403    9.31460411209038

