119
CSD_code = KADHIJ | q = 0 | S = 0 | Stoichiometry = C56H56N6Ni | MND = 4
Ni       -2.46768181017187    4.54464981763511   21.24789870513773
N        -1.64036308870882    3.06557905880116   22.23136260975291
C        -1.57676868048069    2.91556808987352   23.61601127660014
C        -0.86855630562212    1.73827182450512   23.94610792488999
H        -0.67851172871778    1.39489912507493   24.94422670020823
C        -0.48941108135753    1.15854184243989   22.76732935375121
H         0.07595154993859    0.26004415895409   22.62029876883160
C        -0.98627711330187    2.00006253362733   21.74477094914060
N        -0.78783714578683    1.73222727394790   20.42075814686557
C        -1.24087962484757    2.53550594146230   19.41369611200179
C        -1.05699437406883    2.20929678751001   18.04976778381104
H        -0.56902053083322    1.33173460956535   17.67513282609067
C        -1.63555253467953    3.22524487886914   17.34095196917287
H        -1.69942478554867    3.33694656889322   16.27621768878042
C        -2.15997798710239    4.13752712257943   18.28389525400819
N        -1.90755199970681    3.68790805590941   19.57910877697398
C        -2.83079667937665    5.29993434304471   17.94524296842589
C        -0.06647795396920    0.55649127371862   20.06854982729280
C         1.24019547867683    0.65069960672676   19.61130729033614
H         1.70554710343062    1.62147919296715   19.52651829078800
C         1.93198884925449   -0.49262597921299   19.26453301259456
H         2.94695489866751   -0.38980124121602   18.91234282567486
C         1.35112481097691   -1.75562537731587   19.36322895667023
C         0.04310882779675   -1.82911221637463   19.82770600784691
H        -0.45329723402639   -2.78052720750818   19.92364278923014
C        -0.66174233036973   -0.68984055543201   20.17544541042291
H        -1.67790975310835   -0.76474554247978   20.53332837868708
C         2.15789635800191   -2.98146272815609   18.96584937046971
C         1.36762824534575   -4.28362149111837   19.12025463763986
H         0.47976792801751   -4.27994200228040   18.49224724262317
H         1.07372063031593   -4.44379880333240   20.15494859342583
H         1.99004058652035   -5.12233208273331   18.81544530930638
C         3.40451342731283   -3.06832608894240   19.85774391543433
H         4.04025084356266   -2.19551816664302   19.73811684066322
H         3.98643724038477   -3.95109109252041   19.60190808620640
H         3.11412147574348   -3.13772065202780   20.90400428677854
C         2.57734108926564   -2.84822732201696   17.49494065018786
H         3.20389043859873   -1.97489842102137   17.33718201762171
H         1.69835057631241   -2.75666841564041   16.86025946782001
H         3.13673291380587   -3.72812168658397   17.18471094743126
C        -3.00020321917846    5.61754015690270   16.50701502431086
C        -2.03162884613903    6.37409967123299   15.84629875533518
C        -2.20245867062360    6.65857674725464   14.50113456014729
H        -1.45478646699467    7.24441108981642   13.98442299659094
C        -3.31363584033141    6.20700142841163   13.80120158843098
C        -4.26403469298080    5.45675201775277   14.47627870085225
H        -5.13441823571742    5.09803462749755   13.94439335720475
C        -4.12310270303202    5.15454454737585   15.82294696986362
C        -0.82873351998552    6.86407126095942   16.59380240038455
H        -0.17242929585073    7.43429213296330   15.94098266416035
H        -0.27197002802852    6.02330936304204   17.00605758149130
H        -1.13301962349631    7.49621607531070   17.42720379326894
C        -3.46457803467613    6.52046718109764   12.34263525953435
H        -2.71458652826100    5.98258819340798   11.76254264942672
H        -3.32281193113825    7.58497387080434   12.16299956843040
H        -4.44888949112108    6.23260112019184   11.98192162205140
C        -5.15500195059761    4.34088099461613   16.54309270891912
H        -4.70807993595272    3.42989846215485   16.93970184864466
H        -5.97024621266268    4.07072720000195   15.87650554851697
H        -5.55909517600418    4.90127417657793   17.38526925197779
N        -3.29462691239379    6.02392042160574   20.26444328517220
C        -3.35816836423121    6.17396879654398   18.87979664539139
C        -4.06639839335150    7.35125201713917   18.54969789570585
H        -4.25646914895623    7.69461833121425   17.55158315206377
C        -4.44553805132268    7.93098321991000   19.72847924207667
H        -5.01091315264794    8.82947046782225   19.87550260238844
C        -3.94865761591802    7.08946852307343   20.75103382453953
N        -4.14709087095481    7.35730843618763   22.07504470903668
C        -3.69405583923759    6.55402624108314   23.08210443412222
C        -3.87795320227323    6.88023415488557   24.44603027955445
H        -4.36593737323814    7.75778463751436   24.82067116311121
C        -3.29939835675383    5.86428478522558   25.15484944412723
H        -3.23554974815756    5.75258261652708   26.21958395676117
C        -2.77495583676400    4.95201494656698   24.21190514066754
N        -3.02743968931015    5.40159520176863   22.91669095419946
C        -2.10414218453712    3.78960200533449   24.55055997676666
C        -4.86847545909964    8.53302500505904   22.42725498776634
C        -6.17514666959518    8.43879167376858   22.88450048822956
H        -6.64048073746324    7.46800336953415   22.96928959032822
C        -6.86696299915589    9.58210115758485   23.23128424948929
H        -7.88192347352606    9.47925330879334   23.58348630052951
C        -6.28612807818075   10.84511461802524   23.13259331001046
C        -4.97811605272962   10.91862697123286   22.66810935427155
H        -4.48172959374043   11.87005273693883   22.57217500903776
C        -4.27324138914678    9.77937147697740   22.32036232811000
H        -3.25708084479134    9.85430104117016   21.96246643684340
C        -7.09292159586990   12.07093174745190   23.52998115048039
C        -6.30266537458610   13.37310427707224   23.37559789795089
H        -5.41481977082035   13.36943964748282   24.00362883884339
H        -6.00873776230201   13.53330318456425   22.34091023951028
H        -6.92510395316970   14.21179542830769   23.68040082131924
C        -8.33952718841397   12.15778150286050   22.63806594237366
H        -8.97522327159608   11.28493252321132   22.75762693720868
H        -8.92149732160294   13.04050048172267   22.89394960596452
H        -8.04912266855092   12.22725687571721   21.59181291840695
C        -7.51238852986133   11.93766614283629   25.00088414892951
H        -8.13897797956984   11.06436030742091   25.15862221725081
H        -6.63341273273913   11.84606350149799   25.63558031191996
H        -8.07174693675395   12.81757634781144   25.31112142695241
C        -1.93475745493432    3.47198705127495   25.98878765484616
C        -2.90333539040024    2.71542579285805   26.64949838856481
C        -2.73251038510245    2.43094425350381   27.99466410057648
H        -3.48017727616368    1.84509572182704   28.51136737962039
C        -1.62132910751570    2.88251132502953   28.69459774112721
C        -0.67092619555535    3.63275806225169   28.01952268272437
H         0.19945676243607    3.99146852509171   28.55141192698711
C        -0.81185566305762    3.93497173387970   26.67285742594312
C        -4.10622489538341    2.22544330733077   25.90198978904417
H        -4.76252735140622    1.65522926118052   26.55482022655629
H        -4.66299012906781    3.06619832802467   25.48971776882780
H        -3.80192835469525    1.59328071593263   25.06860314227524
C        -1.47038350387952    2.56904064492437   30.15316179050280
H        -2.22035330407913    3.10694346951461   30.73325995698719
H        -1.61217779040782    1.50453869020721   30.33280322841941
H        -0.48606057011984    2.85688075269929   30.51386421684940
C         0.22004178187105    4.74862817786815   25.95270382105396
H        -0.22688499203355    5.65958825858204   25.55605188931427
H         1.03527655290152    5.01881920405500   26.61928471528402
H         0.62415226253251    4.18821324359003   25.11055211793571

