61
CSD_code = KADJIK | q = 0 | S = 0 | Stoichiometry = C26H22AsMnN4O6S | MND = 6
Mn        2.10312866581243   -1.32650098451238   10.79317310542967
As        2.91368738480817   -0.30255491577197    7.60917689153290
S         0.92241149970940   -2.46468562912300    7.90805236091461
N         0.53496291255978   -0.27074185164649   10.83599303213635
N         2.71996305732848   -0.03727269740390   11.99384907888020
N         1.63762797747536   -2.62909217328810   12.04189971560355
N         3.62007196909251   -2.42193501686250   10.56252667524616
C         3.56498479630588    2.22252081772669   13.44908841460412
H         3.90242190118851    3.08592407601564   13.99981269337456
C         2.38535805801916    2.24626921861939   12.73906230622967
H         1.77147492544023    3.13297436874892   12.73071869071399
C         1.97356052661373    1.11895632721466   12.02773784814687
C         0.72842021116340    0.99388748377153   11.30838414684546
C        -0.21106721744202    2.00697915526055   11.10541047757271
H        -0.01703041303032    3.00282853949120   11.47115413450610
C        -1.37124726770012    1.72730208785549   10.41524260563914
H        -2.10519905869399    2.49721628672663   10.23203667958091
C        -1.57607946910811    0.42505301130801    9.95989553880817
H        -2.47177366573167    0.15906198954125    9.42161416993602
C        -0.60923556373974   -0.52907637738177   10.19781647796137
H        -0.74908960877683   -1.54660576556864    9.85627218001769
C         3.85902896071393   -0.03832839347547   12.71962598126173
H         4.42423889583799   -0.96312006992147   12.70192918740860
C         4.30889732396972    1.03831431047871   13.44307719426929
H         5.23192303167071    0.96740734577543   13.99637907524247
C         0.88367013960999   -4.94959655129226   13.44691546953993
H         0.57593657910332   -5.83551880170458   13.97912830265845
C         1.90228812597280   -4.99151217961437   12.52296392349130
H         2.42275341787821   -5.91524076698099   12.32427170171908
C         2.27554601683169   -3.83224207486993   11.83948488851230
C         3.38085412295649   -3.72018321951398   10.92418704054572
C         4.15943017104808   -4.77298222567153   10.43841551168192
H         3.91753597045505   -5.78755970277679   10.71296887014891
C         5.21730112796767   -4.50891525058036    9.59552230349421
H         5.82200757332291   -5.30848328854981    9.19651242032955
C         5.49798048336945   -3.17703956286342    9.28231768968771
H         6.33416907894179   -2.91848652359363    8.65187765405764
C         4.68462787889332   -2.18533305901852    9.78611103218872
H         4.89772807607958   -1.14097557722030    9.57022659508362
C         0.66524100262553   -2.61180007885470   12.97910631135094
H         0.19616084615827   -1.64887089390648   13.15039978152364
C         0.26488142179194   -3.71720900469248   13.68722326635954
H        -0.52509978543431   -3.63304016848045   14.41656007258938
C         3.31015588200867   -2.04676024585897    6.84319891318410
C         2.36022137904469   -3.02676083665053    7.01669420251913
C         2.57230467300421   -4.31689008845034    6.57862544176687
H         1.80385215202263   -5.05788683313631    6.73596367373243
C         3.76626963160689   -4.61377017666552    5.93684675446910
H         3.95085266289176   -5.61690766644272    5.58263415349784
C         4.72073993139278   -3.62547895165446    5.74582966908885
H         5.64427289564131   -3.86309109707627    5.23850495028746
C         4.50361174000763   -2.33277770318166    6.20154236213957
H         5.23716699602745   -1.55034015598492    6.06727270657255
O         4.57398764282166    0.35772022727353    7.36149220425972
H         4.56361187868385    1.27100142082204    7.66073219299501
O         2.22355818166831    0.92592796562110    6.58265760504555
H         1.27454640753724    0.77349202380850    6.57976047953657
O         2.67528156261851    0.00719268604158    9.17803161150250
O        -0.20832644330676   -3.28286914112905    7.58166300740486
O         0.78957517137244   -1.06612986709447    7.44831502295812
O         1.32766557404610   -2.55646377355491    9.30401355224206

