57
CSD_code = KADKOQ | q = 0 | S = 0 | Stoichiometry = C26H24Cl2N4Ti | MND = 6
Ti       14.51230684848027    4.01149342781915   17.35803214588887
Cl       13.54570088420936    5.94727840604134   16.77039314767624
Cl       15.49216045356245    2.10603405011237   16.69738211322782
N        15.56084501956374    4.78578601003267   18.80225330085394
N        16.28973703362137    4.87914369764231   16.72477835080626
N        13.43387288548188    3.16835566204142   18.73985978147718
N        12.74903420843071    3.17599140401043   16.64518352939290
C        12.95047535561088    4.54324872264845   22.97945442561116
H        11.94992882627607    4.96000363685869   23.08278960804175
H        13.44305125002266    4.62386800172017   23.94795640320502
H        12.86797694201587    3.49242403477480   22.71749321871523
C        13.71160033890316    5.30896929436529   21.93669145604751
C        13.68798958144276    6.69917657688811   21.98179807400516
H        13.14593780848192    7.19006457025776   22.77691838042873
C        14.33647955275171    7.45256347430214   21.02154299456662
H        14.30939256254521    8.53115881549495   21.06878153282189
C        14.99028240499867    6.82877418963306   19.97740634183267
H        15.44285799193887    7.41136159193076   19.18648491815047
C        15.02712310438350    5.43376464276467   19.90708059116457
C        14.41570637605654    4.66593252848550   20.91801896363635
C        14.53150194055933    3.18577122565373   20.88384260783891
C        13.94394990812528    2.46764558789587   19.82348263682280
C        13.98103639289333    1.07087833691276   19.82692364514171
H        13.54742718481171    0.52722325957514   18.99855561067702
C        14.61157928034270    0.39737264047244   20.85434144057399
H        14.63900677073047   -0.68224537207361   20.84990125372256
C        15.23667828608139    1.10349940558642   21.86471419535015
H        15.76070527383640    0.57474746140573   22.64754871892963
C        15.21254568058785    2.49426574430180   21.88632424472534
C        15.94806960584502    3.20865897753007   22.98250666893578
H        16.94601025251848    2.78674388038714   23.08993703109338
H        15.43224412000962    3.08214158178769   23.93385075282398
H        16.03633513477321    4.27076785276677   22.77322667040551
C        16.51241097177095    5.29682636088500   17.99299666482237
C        17.63818012278544    6.08053379898954   18.30273798361888
H        17.81167487652230    6.40114378545310   19.31796180301130
C        18.50404105647943    6.39099914396593   17.27792015952711
H        19.38417217286231    6.98425008895394   17.47975736446624
C        18.25521189475425    5.94598719931875   15.97974189394475
H        18.93019605324428    6.19305381399537   15.17652293851093
C        17.12370950732078    5.18266243237318   15.73396073706435
C        16.73659423548317    4.66635491494035   14.38479405941960
H        15.76953906313383    5.09187688133444   14.10528289224459
H        16.62519065573447    3.58074319987675   14.43700490788555
H        17.47714069116140    4.92287602287191   13.63274873615754
C        12.50050142831300    2.69685861663949   17.88660689457650
C        11.36994942907206    1.89812332109875   18.13425295896312
H        11.17566567497701    1.52891395814914   19.12898346237407
C        10.52662248725513    1.63653423966079   17.07752622563379
H         9.64360854498183    1.03338922073845   17.23176944209403
C        10.80210463251231    2.14388334068457   15.80791807689077
H        10.14490491268021    1.93505878816290   14.97949656358727
C        11.93687245658874    2.91956049776268   15.62339495588681
C        12.35165308391394    3.49953506644906   14.30874219552554
H        12.48109513772578    4.57869426762737   14.41995388513110
H        11.61748896186326    3.29609407149303   13.53450800097679
H        13.31472268897658    3.07168364854499   14.01946244309101

