85
CSD_code = KADKIK | q = 0 | S = 0 | Stoichiometry = C39H40O3P2Pd | MND = 4
Pd        5.51459035406209   12.15291528367800    0.79948156164428
P         3.30531196904505   11.43993278851007    0.33282062209421
P         6.11040682298717   12.19883033978566   -1.40669740645139
C         5.25277181874392   11.98012603091231    2.82604265230938
H         4.56659956481242   11.24700090462723    3.25875367316723
O         6.46129272854386   11.94882669308715    3.54956304819015
C         8.57049809961536   13.04300133776372    3.58803982138989
H         8.61738379523421   12.87611981438802    4.65341219272565
C         9.57568325966016   13.71161790401636    2.91578542722641
H        10.44624141811515   14.05608548272305    3.45552068393699
C         9.45070667260742   13.96211811799733    1.56197544944687
H        10.22265553320980   14.50375885870588    1.03346718514585
C         8.33099913937367   13.51855640876934    0.87055985931030
H         8.26667272879276   13.74288470501607   -0.19015992349164
C         7.33583378854973   12.78461385364762    1.50024622613239
C         7.45586141203688   12.59764408647396    2.88774796873152
C         4.65726442111383   13.30040305074481    2.66666192599601
O         5.21994716936194   14.38356225017820    2.63790158345419
O         3.27002001363038   13.23730640173051    2.57033605000471
C         2.64103516640479   14.50232453092532    2.75442791773197
H         2.84196017884546   15.14790657377548    1.89149169521518
H         3.08790910945440   14.97628488096082    3.63658014463450
C         1.14873287802665   14.31099649300447    2.94929528953305
H         0.70062066552438   15.25887457203060    3.23520588288980
H         0.96756891318981   13.58030971249094    3.73332359283085
H         0.68419712936307   13.97016028512465    2.02809474776541
C         2.43191286585150   10.44514862877433    1.58163585000788
C         3.13230485282740    9.31193646459377    1.99589217539164
H         4.11270413647912    9.11219544893541    1.57131073277576
C         2.60761935191475    8.47491116951136    2.96002284388806
H         3.15656041189317    7.59965652377902    3.27547291306665
C         1.38134773875883    8.77219630933313    3.53514323867414
H         0.96958769364190    8.12407587303329    4.29453300458668
C         0.69739733611684    9.91261147635824    3.15124538317079
H        -0.24756164536897   10.15621579787273    3.61543198324517
C         1.21851954797416   10.75115237981113    2.17983840462089
H         0.69001095323497   11.64996786724753    1.90814071976030
C         2.26735618470725   12.84363169155357   -0.19201151999940
C         0.89896518466859   12.82553969209132   -0.44961665924288
H         0.31328358351115   11.93881380048165   -0.26442368864828
C         0.27241646946044   13.95938963142522   -0.93808388281894
H        -0.79043471177769   13.93832987470526   -1.13301981320680
C         0.99594344455575   15.11593542509009   -1.18090288587187
H         0.49880346094723   15.99166269722023   -1.57107482128476
C         2.35306313489979   15.14957904593464   -0.90800351821228
H         2.92262952947842   16.05137458297798   -1.07901556889869
C         2.97886899663920   14.02238271748043   -0.40833228805130
H         4.03891274744073   14.05180225299382   -0.15142068300482
C         1.67286417079012    9.91965436976064   -1.47010542723423
H         1.65876791723934    9.06237529668082   -2.14281636434317
H         1.17497033956753   10.74593849091204   -1.97159904150132
H         1.11416433552966    9.65228975680066   -0.57485585243902
C         3.11759594602764   10.27585438949237   -1.12773073662283
H         3.60993724422524    9.35308103524330   -0.80368576476587
C         3.82207705126072   10.82746823048289   -2.37243551905922
H         3.48183049992740   10.23778574230560   -3.23080118992377
H         3.49198999304929   11.86064374028308   -2.53783348885683
C         5.35702953919296   10.78245577528639   -2.35527210904544
H         5.71153431669942   10.86728526240126   -3.39161462124740
C         5.90514433920676    9.48460778477030   -1.76107489821427
H         5.33480675128160    8.62602230624510   -2.11244713304567
H         5.86205770778542    9.52336603853048   -0.66614075235965
H         6.94393988375961    9.34180639722663   -2.05098432813206
C         5.75964800145324   13.70460304947954   -2.36958609866842
C         5.93399872028739   14.89234597576402   -1.65764117450497
H         6.24237276769912   14.84443924294820   -0.61487673927738
C         5.70251186054980   16.11219042063208   -2.26330866027412
H         5.84652040938188   17.02655419166522   -1.70679114386978
C         5.27703414533935   16.15741964563452   -3.58208730330396
H         5.08687315251082   17.10844244728869   -4.05743690278951
C         5.08841488038018   14.98194840094614   -4.28922957170868
H         4.75203661894361   15.01766666551782   -5.31548716890443
C         5.33079438256578   13.75698669087130   -3.69082171118676
H         5.18232921037729   12.84931743419190   -4.25777098122288
C         7.85406382910163   11.84641725292881   -1.81513006061045
C         8.46024510098247   12.30200727234881   -2.97857895090195
H         7.91079176894857   12.92997390213120   -3.66639346516125
C         9.77602778078824   11.96456544361734   -3.24667837055929
H        10.24798734196565   12.32497725868371   -4.14928798138575
C        10.48736025358581   11.17316686180124   -2.36083212222447
H        11.51497063387091   10.91734675074837   -2.57291977759213
C         9.88484444022124   10.71689083433274   -1.19829612021480
H        10.44187181237263   10.10690307560794   -0.50291313540585
C         8.57324918365890   11.05211068971996   -0.92493380971034
H         8.09596765122696   10.72792116434940   -0.00334131540347

