101
CSD_code = KADMEI | q = 0 | S = 0 | Stoichiometry = C42H52Cl2N2O2Ti | MND = 6
Ti        1.23998438400596    2.53243283528812    6.18545231136451
Cl        3.27396839179569    1.82228677539751    6.78197692925305
Cl        0.20210510789153    0.55481853551070    6.12328349519273
O         1.60255558136713    2.45025674286192    4.48029396538759
O         0.80165787938083    2.82814577826376    7.84604284676148
N        -0.52155187126451    3.60010172759502    5.41937511563224
N         1.84249443746259    4.64889694472681    6.31800144760982
C         1.28519459335617    2.83678390361814    3.28819663998073
C         1.94923725513695    2.36310698375176    2.12220269536593
C         1.66434393560825    2.98269178571658    0.92632279586202
H         2.19491162259882    2.66398382775555    0.04557298833543
C         0.71322863978943    4.00625295157630    0.77380113760207
C        -0.03105482417124    4.34969677285012    1.87449893437599
H        -0.83026647425161    5.07116047630242    1.81217369937195
C         0.22493864351542    3.77285380267035    3.12990141136636
C        -0.61829262944948    4.09468533250477    4.23187173521944
H        -1.45209999636127    4.77477744392983    4.01064605695916
C        -1.43471928418147    4.00040829042708    6.40291519554227
C        -2.10568199434924    3.02834339782413    7.14505135522921
H        -1.94838381226644    1.98453404719938    6.90490978750084
C        -2.96636674392292    3.41151057252639    8.15570464654419
H        -3.49738347128510    2.65761652462863    8.71707805990520
C        -3.15655606768337    4.75262457566799    8.45066046932029
H        -3.81793503385190    5.04242778276884    9.25307133952356
C        -2.50387163986004    5.71956633023675    7.70693971376572
H        -2.65341674792758    6.76648736102426    7.92549524483614
C        -1.65888263049898    5.34986495058614    6.67685368967769
H        -1.14410498115106    6.10614827842770    6.09949894388988
C         0.54012319026205    4.65370844371072   -0.59099365305499
C        -0.53986867986562    5.73884334658498   -0.58838329924708
H        -1.51297347527944    5.32122457212922   -0.34147740979004
H        -0.60815351013800    6.18523726729796   -1.57824403650516
H        -0.29882584214962    6.52760079846135    0.12036908946365
C         1.87038739219007    5.30416549516989   -0.99597796675958
H         2.15552747053702    6.05615596511903   -0.26347220373928
H         1.77312317964314    5.78451386009369   -1.96725604526665
H         2.66831242051089    4.56972036887262   -1.05722622493953
C         0.14399082461826    3.58724447894735   -1.62120360039909
H         0.91781012988845    2.83339833677018   -1.73290039257979
H        -0.02140323380862    4.04885834151545   -2.59230873722223
H        -0.77382377641381    3.09098512880876   -1.31367825230374
C         2.89250487430582    1.17105795615186    2.22576462767779
C         2.11290671115274   -0.00441672683396    2.83629617249969
H         1.78780000855775    0.22207398178240    3.85142206339060
H         2.74642138911367   -0.88766372028077    2.87610067521039
H         1.23508366914211   -0.23361857431647    2.23412609509316
C         4.09426369767629    1.50460133853021    3.11739590447324
H         4.62628486201933    2.36917107367543    2.72660866821758
H         4.77742261354240    0.65837296641506    3.14256804130217
H         3.77775181370112    1.71119680494907    4.13731596128752
C         3.42222861312399    0.72849853591534    0.85706694118503
H         2.60855255347359    0.46264639857287    0.18574451574829
H         4.04873358262119   -0.15111886157653    0.98681646686598
H         4.03096535207841    1.50472394006077    0.39790931436299
C         0.67582861647278    3.69762913615975    8.79575838791586
C         0.33593322110475    3.34186786634176   10.12854782356134
C         0.04831336469937    4.35747062636434   11.01742892996642
H        -0.24720574724048    4.08827856505452   12.01485656600532
C         0.12636010451713    5.72051631028653   10.70051818030008
C         0.59813365503395    6.05556988190216    9.45209374008845
H         0.75496502967804    7.08819641878988    9.17600934831965
C         0.89286099510254    5.07325454707735    8.49665814882013
C         1.46690842884185    5.45697526728403    7.24970926866933
H         1.65671931471507    6.53178833108111    7.12425352321086
C         2.41563853305264    5.16913834089384    5.15084082719418
C         3.62922621695092    4.64963285205887    4.69987145116450
H         4.12896497249452    3.89515848050486    5.29388576228849
C         4.17725601668419    5.11523609380215    3.52018445397546
H         5.12484117396997    4.72393428516838    3.18208599256274
C         3.52446543748672    6.08185131673689    2.77107121062934
H         3.95210833895477    6.42701647455264    1.84204714450008
C         2.32788246492520    6.60905093375230    3.22295983556831
H         1.81691448640658    7.36860320700453    2.64965100034124
C         1.78100816233158    6.16977139020368    4.41459942457675
H         0.84208954928302    6.57821197880688    4.76370752895672
C         0.35316913386684    1.87537647349113   10.54314845783162
C         0.07031244318487    1.68831450149457   12.03813074584725
H         0.79832406749506    2.21902170221918   12.64770126874115
H         0.13934551669278    0.63049520476933   12.28182195079634
H        -0.93147525523115    2.02422939630733   12.29741401167798
C         1.75162325447349    1.30913281230458   10.25045119385903
H         2.51324375580254    1.88298013562903   10.77608491560833
H         1.97290669470142    1.33448530519644    9.18376143935765
H         1.80804089318335    0.27414746378217   10.58013967643413
C        -0.69473474222040    1.07894805153918    9.75664681227961
H        -0.70411037366964    0.04674025887348   10.09993548604219
H        -0.46555743535712    1.07735302993519    8.69334422026990
H        -1.68422900603756    1.50475548801291    9.90801873895121
C        -0.25008695076872    6.81518364503083   11.68883064026957
C        -1.34313353517935    7.69086691874908   11.05968298162825
H        -2.21412167208004    7.08511328135193   10.81942638117952
H        -0.99369781416101    8.16377537639215   10.14630759612942
H        -1.64454686662664    8.47234970608831   11.75397431292621
C        -0.78863431857938    6.26329534209744   13.01134119730958
H        -1.07258270630734    7.09065467338566   13.65858021275690
H        -0.03292521463851    5.67932312005515   13.53089178978024
H        -1.66947596332953    5.64685456144564   12.84827329566441
C         0.98920521491830    7.66780835684463   11.99442487120336
H         1.37152873699216    8.14665967936732   11.09741787832385
H         1.77876720994981    7.04647063517804   12.41110461816070
H         0.74253449743510    8.44346632816189   12.71623139191562

