51
CSD_code = KADPAI | q = 0 | S = 0 | Stoichiometry = C26H16I4N2O2Zn | MND = 4
Zn        4.98513297773271    4.56681693946415   12.78915578198714
I         8.22912497529960    2.98377755536448   15.74419245555549
I         3.69624799556533    1.22458567139201   19.37539298875501
I         3.24226427686689    3.55875524196100    8.58201112348578
I         5.86045525690758    8.64859688577489    6.55980707276391
N         3.17020699043107    4.19527530191529   13.42483378444392
N         6.07487019554088    6.19409943131054   12.76067729777085
O         5.83513566315125    3.51568515300579   14.01676893404984
O         4.83678295236967    4.40585450265412   10.97630736783917
C         2.93047725957910    3.48195262413958   14.47488147650261
H         1.89294284389589    3.25339481815528   14.73303568501373
C         3.91951088596060    3.01254780221363   15.38400285251529
C         5.31803282302639    3.10480118591738   15.11317852250287
C         6.18994462402482    2.69484069258532   16.15441260222874
C         5.75756186802383    2.17984724663844   17.34275479481422
H         6.46199011231326    1.88256022595342   18.10429713129898
C         4.38219970797537    2.04454538932184   17.55162848122264
C         3.48552504403407    2.45331714932896   16.60262832534709
H         2.42385423675166    2.36897173010265   16.78223528994352
C         2.13871114106488    4.56817389323974   12.55396190713602
C         1.10264142793502    3.70152376116717   12.21340468598440
H         1.07236489333312    2.70692697994558   12.63296325324093
C         0.15618962384769    4.09202514794695   11.28421424311382
H        -0.63111529264561    3.40775216263825   11.00779928818042
C         0.22627751789966    5.34261300058587   10.69413576767211
H        -0.50871503708890    5.63710234678108    9.96138826190431
C         1.25382431071393    6.20886809962193   11.03394273021734
H         1.31675509536217    7.18367801795246   10.57318534394533
C         2.20741918355999    5.82455209920759   11.95527631623942
H         3.01291748504458    6.49576466578128   12.22777005417151
C         6.36734892802559    6.81968138427732   11.66885116653220
H         7.04143048233173    7.67915836805459   11.71646764253560
C         5.82400255075231    6.52050222699972   10.38807992861620
C         5.04870704231528    5.34848070518479   10.13675067666354
C         4.48314891514131    5.23283713457025    8.84096428681306
C         4.69127563491545    6.14060593279842    7.84242243206167
H         4.23645454885947    6.00830262091004    6.87283591622992
C         5.50764127793217    7.24505590001415    8.10237483158185
C         6.05561612367844    7.43529160773949    9.34141363243222
H         6.66486178277197    8.30437519382359    9.54149491242510
C         6.70035524742178    6.52115574084214   13.97034007027788
C         8.05585628462356    6.83304381222964   14.04670972505689
H         8.65899553863987    6.83686918897870   13.15102431871238
C         8.63995343028272    7.06681527186680   15.27791719844592
H         9.69514960458570    7.28598122581222   15.33259717842141
C         7.88502301649820    7.00083199200022   16.43656761152247
H         8.34912921194057    7.17258673632026   17.39523053456470
C         6.53488617859895    6.69503079671916   16.36344655386057
H         5.94228507034519    6.63527278647586   17.26442168338076
C         5.94502612044991    6.45230618476747   15.13911458510490
H         4.89052197140138    6.21310946756582   15.07273129490851

