59
CSD_code = KADQIQ | q = 1 | S = 0 | Stoichiometry = C27H28PRuS2(1+) | MND = 8
Ru        7.89894239603950    6.30266144192412    2.27286839427881
S         8.97300126460397    4.81545087457547    0.81406278961319
S         6.12338234819622    5.13407461453106    1.25658171008717
P         7.99474076197938    5.02321098484453    4.18525977005711
C         9.20723266437492    8.07373979555197    1.83174367362489
C         8.01378419377759    8.16783456262806    1.06153860171432
C         6.92744510842867    8.30711906244906    1.96146390417106
C         7.43022804866264    8.24660710135571    3.28131861105370
C         8.85473123390718    8.11564503992774    3.19679997345508
C         8.14040482170067    3.22520256180924    1.18331636475018
C         6.62599684201146    3.37402315370314    1.16781864781518
C         6.59318745446952    5.49971152871384   -0.47799387549752
C         8.05467795790335    5.15573968030442   -0.73904030340869
C         7.97413474474774    6.02584760678511    5.71131692949179
C         6.82815402924747    6.28055084306796    6.45492279764294
C         6.90199428259127    7.07453149284683    7.58741276813913
C         8.11086151211125    7.61978483358702    7.98401861095819
C         9.25812088442457    7.36252798071334    7.24932203278386
C         9.19187815685485    6.57073090885302    6.11959031544529
C         9.43882076257757    3.98381414096392    4.57887598158708
C        10.52250064236155    3.91291103796432    3.71234146262581
C        11.63482635119030    3.15959516500616    4.04666985377226
C        11.67148171385597    2.48008689576606    5.25259133709406
C        10.60388506924696    2.56934373094811    6.13391863279531
C         9.49378773397450    3.32380716434108    5.80659757316389
C         6.55145916551756    3.92717660966257    4.39590591133469
C         6.62276042127337    2.56528927474164    4.66695437313151
C         5.45827654169185    1.82172985621679    4.77638926397899
C         4.22248901864815    2.42514378217687    4.61364633692492
C         4.14548078373511    3.77852735928689    4.31989786437343
C         5.30354340758085    4.52290442335919    4.20059076820849
H        10.21510668597387    8.07223122569088    1.43838238916040
H         7.97531245661981    8.33803466895388   -0.00506904856684
H         5.89791478400253    8.49946817588460    1.68900012034260
H         6.87484738378015    8.45772230500543    4.18495674418767
H         9.54074632054339    8.20550010440602    4.02657156679848
H         8.50606995297567    2.93493112072889    2.17031640471261
H         8.48620184684870    2.50269136495659    0.44357240566623
H         6.18057341178447    2.98474424485097    0.25276997792445
H         6.16740756154493    2.88021636903387    2.02285007232735
H         6.38524478103679    6.55914925426661   -0.62132032047394
H         5.92094511825935    4.92361390230045   -1.11424788734377
H         8.16543432157783    4.26204157985686   -1.35221519471170
H         8.58602739474353    5.97635806327415   -1.21968338429589
H         5.88002361621587    5.85232522337504    6.16636401554232
H         6.00852619007486    7.26366585721727    8.16305052107657
H         8.16181746936506    8.23823749137980    8.86666138002965
H        10.20520400257504    7.77690187812562    7.56052528013167
H        10.08865694950225    6.35597045621464    5.55229337146821
H        10.49980278939703    4.47071734266579    2.78208402481697
H        12.47413941785801    3.11001018575910    3.36997799502171
H        12.53740023310714    1.89185164789933    5.51396401614498
H        10.64167663932468    2.05568878538401    7.08242301170925
H         8.67120839454706    3.41789418870088    6.50244031760049
H         7.58067098746768    2.08071669944980    4.78920047963863
H         5.51973677140186    0.76557975323805    4.99046755600033
H         3.32020537527461    1.84128831394883    4.70771990424235
H         3.18429311935414    4.24949166831132    4.18149502078239
H         5.25569570718431    5.57693462051675    3.94584818489044

