85
CSD_code = KADRUF | q = 0 | S = 0 | Stoichiometry = C34H44F2N4Ni | MND = 4
Ni        1.85077166304206    4.32046398559026   10.30430138823018
F         6.69107623229440    8.08706379273978   11.64541354917836
F         6.61851072972096    8.14751040490243    8.88119967215872
N         2.65815638746943    5.34793235783054    9.07790124564877
N         1.01403977214103    3.54976339214741    8.88942413666098
H         0.33963413263806    2.78961990874160    8.84930977653150
N         1.09312238131318    3.48010510284197   11.72235081031005
H         0.41992938906214    2.71883258387406   11.76146435043338
N         2.72583508991356    5.28878684373283   11.53407357755242
C         5.67602856451841    7.48918430617259    9.58819552643134
C         5.71216208175971    7.45894907188299   10.96082410103543
C         3.68592961334696    6.15036792361701    9.58286413490998
C         3.72454336062376    6.11706961070031   11.01276148447267
C         1.26485099226893    4.13053067071254    7.70113702690609
C         2.34148136525450    5.10295876384882   12.81656202961876
C         1.90769042573028    5.73610575161315    5.48210956348045
C         1.35150911008053    4.35302100849011   15.27938878757310
H         1.01193988264233    4.08055644818923   16.26217076786113
C         2.46247158566840    6.04248261874950    6.70403182301641
H         3.05778325135117    6.92685496899801    6.82904823044417
C         2.17677403437578    5.49105437453160   15.18185967234911
C         0.71807687973484    3.79996644116089    6.43147002852226
C         2.15848539506751    6.57214981636000    4.23774235380930
C         4.74819142270689    6.75056998858283   11.68579921473345
H         4.87797033073629    6.68891160954139   12.75141409212861
C         2.66432833816495    5.85989157881185   13.94845148333109
H         3.25401754213838    6.74978748056494   13.83704453127087
C         1.07591499212539    4.60381670462747    5.37256067505380
H         0.68197064527352    4.38172688106367    4.39741674257529
C         1.41095639330243    3.99993914729784   12.92283579461730
C         2.20192261927742    5.22761498897030    7.81150639278072
C         0.93588653283658    3.60306329125314   14.20222766148513
C         4.67357434588971    6.81319425225973    8.88487606594995
H         4.74604894650679    6.79819194706404    7.81212525045718
C         0.00466143552612    2.40702138857774   14.38281250515156
C        -1.34108895955688    2.67921951872659   13.68922748570161
H        -1.24770191823188    2.87980948697579   12.62643897069277
H        -1.81443482896936    3.54700363989252   14.14434125535868
H        -2.00186233232098    1.82343861523220   13.81489343240788
C        -1.53057801815959    2.85667301889948    7.02470601526935
H        -2.02436126981672    3.74772260971212    6.64203078520415
H        -1.37538482440104    3.00267676738170    8.08915913065074
H        -2.20212834915901    2.01010937834260    6.89384514955123
C         0.67607907748106    1.13248415958453   13.84389731080780
H         1.56506585792588    0.91582156204793   14.43291507786279
H         0.98522909054774    1.21214409244891   12.80663113346932
H        -0.00582491190648    0.28864508735925   13.93150626774610
C         3.06712337731372    7.77512318077190    4.50624551182408
H         4.04589427634010    7.45720540179251    4.85758482469390
H         2.62382670810695    8.44670719684493    5.23775614257343
H         3.21018318898007    8.33346106428771    3.58339870754227
C         2.49514877554521    6.26374319729670   16.45150125639989
C         3.39319082350658    7.47755397422113   16.19654650759400
H         2.91710943071578    8.18365232829561   15.52025913502795
H         4.35273288050129    7.17578935285935   15.78331863357982
H         3.58238283306089    7.99132479889982   17.13681689220077
C         0.46522565906227    1.31414179046250    6.67586689855898
H         0.83373070715835    1.33916409945277    7.69636760236674
H         1.31760025507150    1.12493554002785    6.02638736148558
H        -0.22600530880946    0.47830681981714    6.58452449864293
C        -0.63647297436689    2.41764372006159    4.77607517094794
H         0.23060065363289    2.23974447217170    4.14456731964690
H        -1.18888054040629    3.27412737609122    4.39714968301670
H        -1.28516193861778    1.54682734777443    4.70373008660678
C        -0.31908975156666    2.13003069344200   15.85767034336503
H        -0.85227925283101    2.96224507089621   16.31092373043862
H         0.58313222542684    1.92575707502355   16.42908670463925
H        -0.95935984240639    1.25235379957985   15.92153330850793
C         0.81818273579095    7.09870311383233    3.70430034168194
H         0.31970290451524    7.69450085606950    4.46600684999771
H         0.15487459487841    6.28735452880637    3.41806633214035
H         0.98492385395800    7.72465769436183    2.83032800255249
C         3.22233850407445    5.33424628718281   17.43464898637780
H         4.13351406392727    4.94858583014821   16.98229322206810
H         2.60131341218668    4.49059384417812   17.72221839500867
H         3.48942301326927    5.88132499306902   18.33618324666720
C         2.83494151123726    5.69497237959306    3.17368077524062
H         2.20323322149677    4.86073730381235    2.88184367230513
H         3.77167607548569    5.29572547723951    3.55678164426921
H         3.04897634512725    6.28528032084328    2.28535163548597
C         1.18608160748705    6.76456995801414   17.07895830293481
H         0.53118349773060    5.94097064305922   17.34908561653772
H         0.65609028766074    7.40602070776765   16.37805879993889
H         1.39922628946172    7.33770250704663   17.97869482658940
C        -0.22796858160676    2.61690791227222    6.24242256912478

