62
CSD_code = KADSEP | q = 0 | S = 0 | Stoichiometry = C22H22N10O5S2Zn | MND = 5
Zn        4.81988529757220    2.47472292214733    9.08390437562069
S         0.44987821681646    4.28205198174427    6.73664719841456
S         4.55949140488145   -0.46767546435684   13.65178309920775
O         0.87648747410755    2.83328018211424    3.35989114019775
O        -0.52935764488746    3.91482633608477    4.76204168829392
O         4.45626018852956   -2.44919089754705   14.45561941103703
O         5.37828551454488   -3.99017883920408   13.09232891622410
N         3.30946251079131    3.79139855444926    9.28952772095612
N         2.79608511203606    3.71205980865884    8.03368411130720
N         1.31640069441103    4.64278924732715    9.33617740042440
N         5.00341002996618    2.41812899624117   11.07207560916179
N         5.21501111817034    1.11874967782951   11.43770942738754
N         4.19709821465131    2.16199689116685   13.06182566646747
N         5.26880206222843    2.85988520387149    7.16742595404033
N         3.83300028255750    0.89386212603158    8.39133121898079
O         6.63133722318930    1.20896016194313    9.15921580167164
H         7.53420101659508    1.50727787523474    9.29773449770549
H         6.36318096819188    0.75842379323401    9.98323993501097
N         0.18325420868575    5.29810409697567    9.79326844984790
H        -0.53575428299925    4.62387441806975   10.05627156240207
H        -0.19200333434506    5.85494671431813    9.02636303951843
N         3.56950418087991    2.43611525260793   14.26748021610536
H         4.25394763127923    2.41484438465187   15.02419096189544
H         2.90580849179216    1.68581189140264   14.46325631053807
C         0.54084829334168    3.38656513715672    4.39087726204825
C         1.57067773297302    3.49951234305574    5.57064259146718
H         2.42661911028033    4.14135079190849    5.36613867984650
H         1.90928663081981    2.54328138136745    5.96318389507029
C         1.58710265792587    4.21910029335474    8.05607607422595
C         2.41994261186437    4.35048915426375   10.07462999866155
C         2.52407949769266    4.62796679910061   11.52926299730328
H         1.84335674757959    3.96453915821217   12.07073459235668
H         2.18074205290935    5.65064877601865   11.70234208390821
C         3.94966607913770    4.45751772805502   12.07033981880677
H         4.64112362386559    5.04851483725911   11.46930496514443
H         3.97065957463554    4.80234670748920   13.10473588732417
C         4.38493429994143    3.03933121437250   12.04696270581283
C         4.72564130488075    0.95737681259910   12.64757262765788
C         5.35684566210241   -1.62536092276486   12.52576760777404
H         4.87402522004735   -1.63556973802471   11.54971962902517
H         6.41639897361565   -1.40070179531751   12.41655704993366
C         5.05345570931278   -2.87442346530376   13.43098923364705
C         5.93016320796144    3.83884968989180    6.58390653716397
H         6.48127358621057    4.50466723961668    7.23366558705303
C         5.93318067239082    4.03633533334689    5.20307481862502
H         6.48513810527765    4.86157383031999    4.78236699688805
C         5.21793239056283    3.17614291988247    4.40217086470855
H         5.18013151095229    3.30452904889459    3.33111947645175
C         4.50598781560175    2.12179806453152    4.99585393760790
C         3.72008880050769    1.20739268877863    4.23574427221770
H         3.65811035718580    1.34778211297404    3.16858400607124
C         3.03640414318065    0.20809003917694    4.84298203749079
H         2.43059568588032   -0.47406123772781    4.26753703578436
C         3.06710763146224    0.05550764264771    6.25940055084088
C         2.35347148692445   -0.95126344650939    6.93054389431806
H         1.76905542973847   -1.65790645112242    6.36066298844106
C         2.40804736033611   -1.01551450300316    8.30364783850507
H         1.87861012251520   -1.77913234501582    8.85026646867950
C         3.15929090490586   -0.06458102716649    8.99508041615069
H         3.21716854354857   -0.08577704254767   10.07492590382075
C         3.81347190907092    0.96370082449920    7.04630027893166
C         4.55958797330208    2.00581609079468    6.40423467785034

