21
CSD_code = KADSEN | q = -1 | S = 0 | Stoichiometry = C7H7Cl5NW(1-) | MND = 6
W         2.91980362430560    4.22189031978802    7.57617733442485
Cl        1.17305308673022    5.13262953028618    6.41380370796937
Cl        1.38721666620675    2.50032280992587    8.21150855083435
Cl        2.19692924376321    5.52831255752208    9.43935165731929
Cl        4.21309285878755    6.06495857196626    6.78316513230396
Cl        3.43946828655934    3.02146786304181    5.57488002695624
N         4.27030735119749    3.49196501786295    8.46870198392468
C         5.26286818207803    2.88581358868975    9.11154011125290
C         5.28024924275799    1.48349861073953    9.23411219118518
C         6.31429611171659    0.85591874418439    9.89241205234898
C         7.36101842050368    1.58204846853075   10.45037369423356
C         7.34260144715546    2.97025616632759   10.33479344025563
C         6.32071525230329    3.62001082644023    9.68212407701230
C         8.49234523250080    0.89880685004574   11.16172870676203
H         4.46264055840481    0.92775243820240    8.79662194164895
H         6.31257057536716   -0.22287764348670    9.97575756150344
H         8.15025401779950    3.54613405916310   10.76718189572432
H         6.30106938028855    4.69628193343875    9.58649210685767
H         8.54571272064457    1.22729617736620   12.19984352480458
H         9.44323931091042    1.14179211174583   10.68715454651049
H         8.36394843001882   -0.18097900178007   11.14697575616711

