86
CSD_code = KADVOB | q = 1 | S = 0 | Stoichiometry = C34H47ClNP2Ru(1+) | MND = 9
Ru        3.54191486005140    4.87422298969683   11.17043978214001
Cl        2.71826113373562    4.31527063726602   13.29288025537717
P         3.24050101102208    2.80913500080583   10.19526099439858
P         1.39428298116296    5.74114680427167   11.04048302588403
N         5.33570553601974    5.85427770058089    8.20781405918114
C         5.18061737288738    5.76213714856122    9.55463683212766
C         5.57236535547955    4.61372408509948   10.34322628044239
C         5.70283119452338    4.71491587751816   11.75341534682662
C         5.28082305536073    5.87147904044538   12.42982115319712
C         4.64234814448148    6.87968840427900   11.70547565249301
C         4.56382653045122    6.80916461528849   10.29463277956573
C         5.94007848293078    3.28966535096318    9.77460147129154
C         4.91475426749709    2.35404288014293    9.59995006685974
C         5.23126335020999    1.08455845862527    9.12212172829703
C         6.54248801402713    0.74940184502372    8.83736053737160
C         7.56045923115213    1.66033038355637    9.06935826065799
C         7.26152203812369    2.92297177979908    9.54799776622287
C         6.28213424026343    5.05000156357759    7.46780147773336
C         4.63192481771680    6.86763539502683    7.45108133263625
C         2.13184704505908    2.74171523120723    8.70300689599772
C         2.69311727831748    3.71597707589182    7.66787890340991
C         1.74433532216956    3.86143275082364    6.48215282447994
C         1.48070831608166    2.49835961056443    5.84922281740846
C         0.92701751261818    1.52809622076314    6.88783810915525
C         1.89763086482763    1.37660800109770    8.05998990594232
C         2.80888964842909    1.32360322549733   11.20502588229330
C         3.82432505650928    1.15613486942063   12.33655800210708
C         3.46189323590048   -0.05295959333143   13.19401635734534
C         2.05344664500553    0.10090074122183   13.75753381691022
C         1.04523098150065    0.24593762421136   12.62309928912939
C         1.39203969297362    1.45664611039669   11.76034969704668
C         1.34441576646613    7.26640465059505   12.03253952125352
C         1.60832084054239    8.50367065502270   11.44860901905990
C         1.60491882691276    9.65327758329084   12.21759332904681
C         1.34621960925290    9.58030411240601   13.57678839292029
C         1.08957447419229    8.35240375044950   14.16428297937215
C         1.09025123712893    7.19908074351325   13.40022557692627
C        -0.06990708554172    4.82220385261500   11.62473647477577
C         0.76725288157306    6.30661773204143    9.41138832428753
H         6.18762628474733    3.90686207338304   12.29204129884232
H         5.43017992108997    5.96939912289571   13.49803520494573
H         4.29141357345040    7.77412013299128   12.20674954572208
H         4.20426354275439    7.68714420226744    9.77480108502539
H         4.45746188419413    0.34427851933660    8.99481964638277
H         6.77499013246081   -0.23608215452432    8.46482384064649
H         8.58768603388967    1.38351580238335    8.89180014843601
H         8.05694215814970    3.62472204886883    9.75681512281896
H         7.20200855579845    4.91952867197005    8.03423697688113
H         5.87945335624192    4.06569860422769    7.21347659145809
H         6.53273539777739    5.56928977750030    6.54538581298056
H         3.60285700828750    6.96538018290749    7.79859715077735
H         5.12565650006842    7.84240587958137    7.51639635627434
H         4.59825180050535    6.56568904255057    6.40715900398986
H         1.17057126543990    3.13020597909125    9.07028726837713
H         2.86537058648825    4.68442210577218    8.14926187676495
H         3.65333060474599    3.33437739443437    7.31096517054630
H         0.79711929718211    4.29086232292437    6.81565940291948
H         2.17490283377684    4.53931434148201    5.74290606397852
H         0.77366636078530    2.60305015284832    5.02576364969784
H         2.41201068974864    2.10034753008383    5.44075089353145
H        -0.03432948843460    1.89437475739766    7.25464261040073
H         0.75844692897279    0.55271417717879    6.42978897441328
H         2.83978040124115    0.97889905955219    7.68054727430234
H         1.48320604529560    0.67128696194959    8.78095969509613
H         2.86442912559458    0.44976021953447   10.54351206306249
H         4.83029886254086    1.03158769492300   11.92501965913677
H         3.81191467433924    2.05319396318736   12.95928521875923
H         3.51725641207093   -0.96110171599442   12.58853259349194
H         4.18123445072158   -0.15009109892546   14.00817255278780
H         1.80170103872450   -0.76465912959963   14.37119519995099
H         2.01407518239273    0.98962562237456   14.38944794466331
H         1.05340619479765   -0.65825829094514   12.00930766273391
H         0.03998644609402    0.36488088009476   13.02952615135354
H         1.34669487144347    2.36090244231388   12.36932137472437
H         0.67233874575534    1.54729829912844   10.94254835671606
H         1.80977243435012    8.57549409986704   10.38927328377595
H         1.80408688943646   10.60839200403659   11.75466273686764
H         1.34552721821554   10.47862138386000   14.17465478912478
H         0.88850777240630    8.29076202124424   15.22284650584579
H         0.90479496014594    6.24468244251663   13.86846598604697
H         0.09697606171908    4.44046926721459   12.62875131760449
H        -0.92630329742326    5.49737632930151   11.61872152035850
H        -0.25440769457305    3.98384904351075   10.95431472858308
H        -0.10440482648108    6.94085005242893    9.56977159314982
H         1.52051826057094    6.86177136683499    8.85804974934111
H         0.47766477547434    5.43610150580542    8.82765342511531

