67
CSD_code = KADVAN | q = 0 | S = 0 | Stoichiometry = C26H36Cl2NPRu | MND = 9
Ru        6.50906654452944    1.27924422850511    8.88909355400419
Cl        7.82340603674997   -0.33679034134156    7.79458968307643
Cl        4.68759103807216    0.21633627779151    7.86996233582600
P         6.89772272019090    2.78955680021503    7.23490192240670
N         4.34802632454595    3.45366955876649   10.15001399621388
C         5.41172028452196    2.58329869422471   10.40053585433094
C         6.77036986065633    2.99798024872226   10.16702467792977
C         7.85756310302458    2.15969621565608   10.54366008420866
C         7.61970513945661    0.84054528335209   10.94516389383541
C         6.30020037267149    0.36328982987786   11.03489868298896
C         5.22051384549180    1.23954121849010   10.80269190995477
C         7.07892416003263    4.30731804534650    9.53944501697768
C         7.04435357876145    4.37677012800308    8.14164191444426
C         7.23074587755847    5.60713971516479    7.52129869397719
C         7.51741835882593    6.73395722198537    8.27147204736210
C         7.64665206456502    6.63974864623841    9.64724274749687
C         7.42021675987363    5.43058124380309   10.28159575419219
C         4.23862505284950    4.65291397753676   10.95319457435341
C         3.05588521537940    2.85891090349143    9.87446161074265
C         8.54636163559480    2.59836742927685    6.40070309991599
C         9.64505756204801    2.55025299049185    7.46308264456088
C        10.98342428687334    2.19654356662862    6.82217888978562
C        11.33819773983453    3.19644442180821    5.72677241762238
C        10.22991074400400    3.24771585758962    4.68075927631815
C         8.89920026024531    3.62733799417240    5.32970693951091
C         4.34202716098411    3.43627708161023    6.51673985623128
C         5.62190911504020    1.93477257237237    4.95116290209058
C         4.54032297845440    2.14089645244366    3.89460210812405
C         3.19297944536421    2.40814946940065    4.55650727229330
C         3.27978189379068    3.64568201371540    5.44346066496022
C         5.70041458677948    3.14679670984414    5.88027330318803
H         8.86538030292924    2.55680540260109   10.51100495951646
H         8.45001896728406    0.19379116447138   11.20212432209039
H         6.10676931313357   -0.64792116369810   11.37173274815573
H         4.21509092481526    0.87278697967367   10.96949511011125
H         7.14761181492486    5.68651576823980    6.44853882860899
H         7.66170287292333    7.68490876161520    7.78064675092255
H         7.91251180629313    7.50957286353625   10.22883588009721
H         7.51326098305138    5.35695815327424   11.35725833314369
H         3.72964329669456    4.45498716020464   11.90784952290138
H         5.21897993720112    5.06889326149071   11.16077773315544
H         3.65774718715948    5.39240453659911   10.40070666228619
H         2.52376410530627    2.55322174527570   10.78564567718940
H         2.45046731672643    3.60420616956588    9.35909637791830
H         3.18076863699313    2.00014546992679    9.21613972226760
H         8.47673493472868    1.59954735195612    5.94657605813318
H         9.71697875619729    3.52157436255579    7.96379376941523
H         9.38892720354944    1.78501429194568    8.20056881337214
H        11.76576349882437    2.18370390115569    7.58379408033712
H        10.91304712913993    1.19457407083482    6.39617899317986
H        11.46723721738227    4.18880865043516    6.16676666142812
H        12.28162945312390    2.91436480123930    5.25575586902094
H        10.48023951485777    3.97582374645298    3.90580566297608
H        10.13449960483544    2.26936519418518    4.20590158950867
H         8.12535607303511    3.67507099488446    4.56219689712626
H         9.00211417801138    4.61412171718137    5.78591034702228
H         4.41370438721234    4.31381828786447    7.16609954253062
H         4.06740797371431    2.57378602462968    7.12678304259935
H         5.38664716004151    1.05241114143542    5.55190908201137
H         6.58550477922906    1.76544034209965    4.46534154609924
H         4.80757123753575    2.98856525511809    3.25633777878391
H         4.47565106912687    1.25347694335045    3.26324624902938
H         2.42206749368381    2.54415627028085    3.79516590213317
H         2.92257400989873    1.54829827269462    5.17081617422898
H         2.31373149662480    3.83666351244678    5.91462969499594
H         3.53431659838673    4.51756540950042    4.83388074525879
H         6.04338501840568    4.02842872982410    5.32355054352383

