113
CSD_code = KADWUJ | q = 1 | S = 0 | Stoichiometry = C53H55N2NiO2(1+) | MND = 4
Ni       15.54792734252732   16.51224588845158    9.06307537963289
O        14.66780410365079   16.58878517268973    7.42254130736258
O        17.20158888461767   16.82996133831094    8.26620482778025
C        15.15974382531451   16.79538855464622    6.27455686573774
C        16.51510688316548   17.00499035662029    6.01535707661287
H        16.83668620206711   17.16945705041239    5.00155431847920
C        17.46245823233547   17.00897585227356    7.03979707097205
C        14.19101393464501   16.80924547439325    5.12187285823990
H        14.45158634272089   16.02625437494313    4.41348026238125
H        14.24372828732950   17.76435430917692    4.60457969644796
H        13.18026664030397   16.64635464562046    5.48732501689964
C        18.90921161791515   17.23480688083542    6.68758493931997
H        19.01242768595472   18.13900797164298    6.09351871705575
H        19.27613960470357   16.39831691722086    6.09595231660514
H        19.50162882885956   17.32371768321038    7.59476734222704
N        14.03163741114911   15.88343353939823    9.97278966581308
N        16.21232985892158   16.74020120943636   10.80865214576978
C        14.14693127361988   15.84172385859485   11.25743479502066
C        15.36607404996168   16.47607034496679   11.74665126519641
C        13.16458475364064   15.20642498278556   12.17629586836894
H        12.24949534944372   14.95172569363687   11.64730563302111
H        12.93118490561795   15.87496462038971   13.00238484761928
H        13.59016909865395   14.29206748483345   12.59090132639858
C        15.57509886917852   16.78248828274018   13.18706423988829
H        16.60891143652570   17.06159878108990   13.37549109350828
H        15.31511057554567   15.92245434455383   13.80039781560226
H        14.93412987907064   17.61468265089934   13.48037427740735
C        13.00384260345119   15.21047786382893    9.28980212025838
C        13.08662325658384   13.81774843816242    9.13017920126631
C        12.05629107363189   13.17568899785390    8.45408503270616
H        12.10477078379597   12.10420500956103    8.33032326545058
C        10.99825972084333   13.88681597134996    7.92298042330264
H        10.20897147286610   13.36369725200500    7.40585143632648
C        10.93162733877315   15.27411890569165    8.05418438335298
C        11.94406006738972   15.92472656457756    8.75115824772121
H        11.92226677188137   16.99633055405656    8.87106233310403
C        14.26476238244202   13.08265231724096    9.62327654935948
C        15.54540217449268   13.50553920679348    9.27316116384170
H        15.67223733929063   14.33657191814529    8.56564761945732
C        16.66973381894042   12.83937499390845    9.73595310335697
C        16.49807510254796   11.73394013003155   10.56030218130172
H        17.36775047801641   11.20891740451186   10.92801733707675
C        15.23231713574812   11.28176833704735   10.90949681937764
C        14.11930955470987   11.96369746869305   10.43375400901865
H        13.12816222259858   11.63019429746304   10.70556647892335
C        18.03771557337049   13.29234999342743    9.32778140935096
H        18.74038844753356   13.20577816896913   10.15450635389652
H        18.00889804408984   14.32486263291365    8.98117507146903
H        18.40706168511231   12.66821918653939    8.51344856941681
C        15.06906776855469   10.06548585192941   11.76626637462619
H        15.89711684143725    9.96515423250366   12.46359341647223
H        15.05152550283751    9.17433310349247   11.13869703331948
H        14.13611147711078   10.09993868845799   12.32354455326471
C         9.82322970073337   16.04141865788962    7.46993028550438
C         9.33170043610847   15.71467294807225    6.21018407951317
H         9.78053441503911   14.90263489638877    5.65647745468996
C         8.29211674536050   16.43666091013684    5.64204601019261
C         7.74188404732242   17.49194326730169    6.35644954090217
H         6.92881365412181   18.05742634786726    5.92436193171947
C         8.21245738615829   17.83655730074479    7.61747647289666
C         9.25733842305277   17.10809222131524    8.16333633257157
H         9.61779968605386   17.35279589416640    9.15257099575003
C         7.75437262225612   16.07303941551337    4.29254751903452
H         8.47942634700317   15.49585456242894    3.72421947676740
H         7.49055790218216   16.96441691369300    3.72813671131735
H         6.85269724398465   15.47047682972371    4.40351601154167
C         7.58917715641913   18.97637824336534    8.36363375325769
H         7.64662492538957   19.89148968745009    7.77613685293667
H         8.08550420476567   19.14105987681871    9.31673868599617
H         6.53652493027308   18.77152082504753    8.55293171140906
C        17.39368310760932   17.46330087906095   11.04098498509371
C        18.61514423083042   16.80739031932655   11.01348238833615
H        18.62794191190494   15.73984600617217   10.86159212137269
C        19.80214344087085   17.50513250737075   11.20984894720268
C        19.73372738109014   18.87707025513803   11.45419767081178
H        20.64452024260043   19.43813659684230   11.59470745497069
C        18.51803492917034   19.53211669657667   11.47794173363864
H        18.48228699553763   20.59880460291825   11.64119159675890
C        17.32745194710659   18.84961798875762   11.25725320761659
C        21.08894622604674   16.80059919301382   11.14295269552179
C        21.28773925187177   15.80355060433613   10.19122281086437
H        20.49798379229328   15.56770592197961    9.49234715381761
C        22.49665938245125   15.13130657204306   10.10620820957044
C        23.51158592573243   15.46476901968825   10.99350111513185
H        24.45687851939891   14.94448356008320   10.93544298171361
C        23.33852069587320   16.45391872835530   11.95329714398087
C        22.12307257785860   17.11831740950997   12.01819909320779
H        21.96941149736326   17.87537352773113   12.77337071377157
C        22.71837373605323   14.06936084363234    9.07268241607186
H        23.09708410221159   13.15992316585155    9.53554300604061
H        23.45805745438575   14.40208706872954    8.34535002784344
H        21.79655341945912   13.83692123362931    8.54508521148868
C        24.45079359584082   16.78255412707500   12.90045125611931
H        24.66127270656595   15.92943394980836   13.54444743512613
H        24.19482604445459   17.63294845463709   13.52684454305014
H        25.36156051092697   17.01410427099570   12.35099959938177
C        16.03293342139738   19.54959114181188   11.19528548111222
C        15.64090805367220   20.41101763413156   12.21339303488728
H        16.29846090764526   20.57067127175218   13.05569092901510
C        14.40943863464413   21.05120272481380   12.16706434751331
C        13.57020391090429   20.81762108813170   11.08500141492472
H        12.60920409587785   21.30977067987077   11.04551487352484
C        13.94646291530165   19.97589728417583   10.04553324140624
C        15.18203651284051   19.35074052001811   10.11060588319297
H        15.51219922408534   18.73787328087518    9.26041641132788
C        13.99653006649308   21.99252275056977   13.25508802569285
H        14.18918414144376   23.01956070122299   12.94500903679258
H        14.55479005007987   21.80642778775305   14.16907923846525
H        12.93275050604927   21.90384587794355   13.46356965852348
C        13.05137174335137   19.76062151998984    8.86448061592202
H        12.01197266468730   19.67081627540911    9.17415786946698
H        13.34470520809055   18.86469361959477    8.31847442730721
H        13.11940997616511   20.61082778781300    8.18567071003509

