101
CSD_code = KADYIA | q = 0 | S = 0 | Stoichiometry = C36H59N4NbSi | MND = 4
C         5.01862299210407    2.03960621422609    3.88344962577811
C         4.67687604124795    2.78401648728087    2.74341691582723
H         3.67150984328680    2.59459273708180    2.38696647137089
C         5.34146222543870    3.80977003679776    2.05652518736669
C         3.96110729102284    1.08218782749889    4.38564346721606
H         4.08621110343854    0.12781675578677    3.87081032659574
H         2.95734724824636    1.44665513577583    4.17714277871590
H         4.06558439613900    0.90321038143982    5.45508073570526
C         4.52583138905622    4.62301777161006    1.08026658126207
H         4.65965556873232    5.68722189094959    1.27751424712698
H         3.46837308491112    4.38025759957872    1.14150434564087
H         4.87144216469316    4.43162825350046    0.06441115621469
C         6.31531911785400    1.63534675506649    5.84655242171792
C         6.78432157064572    0.33053313971363    6.06471195112158
C         6.95790391570016   -0.10232779387668    7.37255184037557
H         7.33258879581548   -1.09704577109520    7.55619016525415
C         6.64439028291675    0.70900841259319    8.44474629140729
H         6.76477172312338    0.34514679830503    9.45425531730170
C         6.18006065411650    1.99077476359621    8.22198725812862
H         5.93801461362176    2.61742037671182    9.06555315414998
C         6.02608417352982    2.47962524127919    6.93362673702139
C         7.13545921369686   -0.59505428190255    4.92164963526037
H         6.74855331870374   -0.19154613874128    3.97700628488386
C         8.66115316061146   -0.66674006347807    4.78495768826172
H         9.05365948928374    0.32691767887899    4.53600119745103
H         8.92874908840164   -1.34448552511918    3.97820211768247
H         9.11550466140810   -1.01790284604972    5.71023193131513
C         6.53398885307835   -1.98897280491223    5.11965135860026
H         7.03848056523223   -2.53045444856871    5.91606722312933
H         6.63695068195506   -2.56661444244498    4.20497178456650
H         5.47570302226338   -1.92276283191986    5.36728450381198
C         5.54584626173882    3.89567274872081    6.69806860719979
H         5.90188815409606    4.21116959074136    5.70889191986036
C         4.01493505174828    3.95739455355471    6.70284227981903
H         3.59451402329967    3.36124047672945    5.89673208898182
H         3.68015722170525    4.98562726377611    6.57668007987533
H         3.62558853152862    3.58127798106497    7.64722020934778
C         6.10563514329192    4.87790579092768    7.72770274284139
H         5.65096044782036    4.72826623495266    8.70396699958722
H         5.88851876810184    5.89926572217185    7.41968415497069
H         7.18305765251025    4.76133559140161    7.82285999221629
C         7.16669053704810    5.28191177220382    1.63225199624477
C         7.18874303315276    6.47376454193149    2.37453166319181
C         7.76930502952077    7.60345243719815    1.81822072570197
H         7.80111295694446    8.52226717437383    2.38226967260023
C         8.31487173452116    7.56717059366212    0.54964941263606
H         8.76107801646209    8.45520760603674    0.12745088824263
C         8.29955266425590    6.38889461326204   -0.16972861477280
H         8.74342210251940    6.36558991225050   -1.15258831641534
C         7.72596595073470    5.23456632213553    0.34738348129783
C         6.67296309338558    6.49677600773721    3.79597786086077
H         5.95377145111586    5.67755649985073    3.92463056274856
C         7.86472421579074    6.25379981211832    4.72899013572627
H         8.30432095262370    5.27259653056054    4.52989280934229
H         7.55454124447068    6.29937964000697    5.76974098729849
H         8.62519652576916    7.01494867034460    4.56297648872199
C         5.94979399283871    7.79411461407837    4.15877223390503
H         6.64553976754721    8.62453111209371    4.24502283883592
H         5.44740589666153    7.68076658214362    5.11772456372488
H         5.20245751648480    8.04422669740990    3.40795659952660
C         7.77481324787913    3.95395806854881   -0.45345422865432
H         7.13432374980245    3.19719334455869    0.01545694474323
C         7.30323448331476    4.16319326294424   -1.89534126790416
H         6.35852739215261    4.70419058075472   -1.92513109792448
H         7.16164973475643    3.19993400594849   -2.37895101303986
H         8.03392173523125    4.72404919597612   -2.47258157557154
C         9.20616275601370    3.40738674065299   -0.41695954574720
H         9.91579251506978    4.16023455547682   -0.75507516036717
H         9.28627510532528    2.53522788318162   -1.05965155134211
H         9.44361128674628    3.10282531690940    0.60664893126913
C        10.69484021431933    3.24192962212430    3.77936864198077
C        11.46274053648736    2.02682703712286    3.21835516520896
H        11.27681509279885    1.15513416783850    3.84132458206868
H        12.53160676981226    2.22306102449607    3.18651317056252
H        11.09231129926303    1.81392580341824    2.21674648302755
C        10.98835914919536    3.38932893009402    5.28620683794006
H        10.52608332492379    4.29611832130913    5.67007882115497
H        12.05967869842880    3.43578040749305    5.46515144740506
H        10.57224612714712    2.53540579417121    5.81926353083675
C        11.14746465949260    4.51581472595415    3.03762196363159
H        10.95999151636688    4.39834792352783    1.97314474978665
H        12.20717962681743    4.69541137262021    3.20148641994748
H        10.58205467121233    5.37436201976207    3.39212042312353
C         6.95769254068388   -1.66401743352324    1.35203505959909
H         7.54691590007033   -2.16339094145551    2.11367827131704
H         6.82469228236910   -2.36445559149617    0.53329824397984
H         5.97550637226098   -1.45919495237128    1.76834187620807
C         9.63522803179567   -0.54290726991766    0.34145144081642
H        10.16452731041351    0.27300574267573   -0.13991661827645
H         9.68390315638672   -1.40544326324321   -0.31620127577487
H        10.17503739298214   -0.78496921666598    1.25171672937752
C         6.94128990440097    0.35756626924591   -0.91603175308891
H         6.01188587559613    0.89426366409094   -0.74751730937340
H         6.70119741896793   -0.54791819514336   -1.46469905630543
H         7.56568799437520    0.96987313026857   -1.55726050797017
N         6.15518538400629    2.15618431598085    4.54263405901214
N         6.61078954286176    4.12623430807517    2.22907262171986
N         9.30788014593761    3.04918174703616    3.57428357280501
N         7.68349740252469    1.20461826351157    1.86777660851534
Si        7.82253306350485   -0.05665325069869    0.74399830047018
Nb        7.65632840067382    2.55735816564478    3.11419130030283

