120
CSD_code = KADYOG | q = 0 | S = 0 | Stoichiometry = C46H68N5Nb | MND = 5
C        11.53748310976025    5.69645578158503    6.38903398052147
C        12.41661425825012    6.78041220384409    6.41513202876829
H        12.61831042947911    7.17915173210030    7.40068857374643
C        12.92297718631607    7.54776734203400    5.36133013777325
C        10.85584759243487    5.43687743755757    7.71832325255985
H        10.23432773880917    6.29166256940810    7.98271290671021
H        11.60690724538181    5.32474960014634    8.49842110266721
H        10.23396708111289    4.54752238188595    7.69241737667401
C        13.63963250762697    8.81254441452861    5.78561944366825
H        14.63071342367042    8.55358100382435    6.15773373810095
H        13.10007687322049    9.30076913017769    6.59520975467109
H        13.74727831600637    9.51451252262437    4.96174259929856
C        10.09716279660811    4.13287514740706    5.39319074648957
C         8.83429418407096    4.74097811015625    5.28686984500639
C         7.69191601220595    3.95858580192997    5.37806059110671
H         6.72041638169904    4.42508182624707    5.30795504745698
C         7.77828850446668    2.59716901356168    5.57472871985338
H         6.88301450186449    1.99840061405099    5.64742625693077
C         9.01963978943509    2.00254207501631    5.68476267327179
H         9.06575763758384    0.93936407651789    5.84506399468527
C        10.18970203786019    2.74411545700194    5.60553699385239
C         8.67094934339542    6.22707574533691    5.05328462547781
H         9.65278395714923    6.71128222856629    5.09468574797099
C         7.78806570357856    6.87744481039180    6.12227825863578
H         6.75373711541018    6.55824563340402    6.02205161545638
H         7.81724337521645    7.96123961827668    6.02356956865105
H         8.12770808631385    6.61361095227789    7.12089987692377
C         8.07351764212775    6.46486255318596    3.66508795735191
H         8.72085925374765    6.04813369158006    2.89408682261853
H         7.94535512696987    7.53044314881185    3.48920525036465
H         7.09867739543616    5.99182799897898    3.57987961370068
C        11.53766276943376    2.08009753303058    5.76525522239485
H        12.18347997125990    2.49903853486895    4.98157252766540
C        12.16281706233709    2.40942284939726    7.12917932370291
H        12.52734257314895    3.43195971626910    7.15370677850096
H        13.00490383360415    1.74701421630442    7.31912525386907
H        11.43757655431046    2.26577085159453    7.92859623901229
C        11.48053416548214    0.56120077750030    5.60744039172608
H        10.98683520328413    0.09975574000510    6.46070029831090
H        12.49019773829645    0.16107434665333    5.55533732605340
H        10.95236121516128    0.28791588925091    4.69954062769740
C        13.11752908863900    8.19266037826665    3.10168923297489
C        14.45660009128044    8.34189157902739    2.70288682418976
C        14.78030556400967    9.31951650647104    1.77165227604916
H        15.80870390012085    9.44288122628893    1.46773254203602
C        13.81740999870770   10.15217568346065    1.24124225960654
H        14.09036543010712   10.92423369931214    0.53748903095272
C        12.49698101425163    9.98353359792113    1.61029090693827
H        11.74828619420635   10.63070793537925    1.18271699912986
C        12.12600880940543    9.00602310221365    2.52136717009906
C        15.55827970228398    7.44317918267294    3.21574888324088
H        15.15105754660222    6.77302630357798    3.98465188288290
C        16.06623028557473    6.58516188932140    2.05200997926336
H        15.27624170124592    5.90234727199082    1.73428474694928
H        16.93552116750937    6.00329765008382    2.35168081365580
H        16.35270037404718    7.20833157945079    1.20721335978549
C        16.71378965559368    8.23896294457383    3.82870572016144
H        17.25840000565627    8.78721531900425    3.06376977107348
H        17.41071688605615    7.56239605061725    4.31949586018664
H        16.35215982741190    8.95352067478172    4.56423716444619
C        10.67343501642719    8.82493631358012    2.90060232427396
H        10.51523775138893    7.76058278096158    3.12015759693105
C         9.71952570255637    9.22178260207510    1.77276921360120
H         9.66688552844287   10.30301989385020    1.66461219047916
H         8.71476140100071    8.86490414039861    1.98702154581244
H        10.03655491833593    8.79146600976631    0.82457669156534
C        10.35197341935373    9.63044951929013    4.16374643131899
H        10.92726373870577    9.27018977004061    5.01351379376378
H         9.29434274688161    9.54721044126120    4.40657203370728
H        10.58804819348127   10.68213707678874    4.00864436507693
C        14.89409281665848    3.10240577202521    3.69833352188418
C        15.39643768839204    2.83331618525326    2.26417035347831
H        14.64536332918150    2.26278820791029    1.72180557662779
H        16.32537674421488    2.26857096089281    2.28662073033991
H        15.56522634461128    3.77006382152066    1.74025351189523
C        15.98071095050577    3.82706120550356    4.52061488485873
H        16.28956391367113    4.73768653199221    4.01992849581448
H        16.84848680320502    3.18563268252220    4.65545274151434
H        15.57167898189307    4.08541878107120    5.49662949169950
C        14.64799062576952    1.73712138855974    4.36980596896606
H        14.38783142617953    1.88012205822585    5.41352847902099
H        15.55422282405598    1.13757933944168    4.31423864635620
H        13.84700363615258    1.20810856155134    3.86477606543933
C        11.72658203216363    5.32195797120963    0.10563856176412
C        10.32342432131198    5.61000485846033   -0.44432293820612
H         9.67163594176450    4.76403338905031   -0.24050795270103
H        10.36815512532228    5.77501316938159   -1.51833311262395
H         9.90555504877362    6.49651270746066    0.03034862034993
C        12.64925706928997    6.51473127632514   -0.16685130172377
H        12.26964373426055    7.41386330341566    0.31705658731945
H        12.71931409476034    6.70152478970481   -1.23656940091198
H        13.64877194108409    6.31150994946008    0.21747476165859
C        12.29852385475441    4.05901035550220   -0.55518046577394
H        13.25671557202566    3.80761571477702   -0.09878324346379
H        12.43843815651145    4.21725147025355   -1.62210570793522
H        11.61183407450602    3.22923213428776   -0.40684042267213
C        10.94875783068859    4.15497768180328    2.12213465474790
C         9.46520390684152    2.24755728545608    2.08419261112102
C         8.06869713344689    2.17459034163052    2.20243528790999
C         7.47394299913912    0.97093845682604    2.54392668783563
H         6.39846625620648    0.93037962802458    2.64957709651078
C         8.22904822074830   -0.17049245402446    2.73156198951419
H         7.75470367157179   -1.10371415925236    2.99775513298146
C         9.60020418251720   -0.11335207816627    2.54384313072685
H        10.19044885510057   -1.01510291520911    2.64234169370964
C        10.23236389041573    1.07433633424257    2.22173890314573
C        11.70924372676304    1.09492144470752    1.95114261714848
H        11.88401736628032    1.12563080619520    0.87368504211714
H        12.17959752584547    0.19486791731572    2.34124493367534
H        12.17506535557140    1.97657144827211    2.39394919206642
C         7.20972999149541    3.37623980185473    1.94391755916445
H         6.40290096474327    3.12295281378029    1.25679978552169
H         7.80241847168327    4.17803572161474    1.51298375051678
H         6.76429913806639    3.72771083507676    2.87287215190114
N        11.25480660431631    4.95854722350228    5.32779521858172
N        12.73169823883803    7.25618931765198    4.09190646337992
N        13.72888467880272    3.91338668113395    3.65204343758239
N        11.65651592416758    5.11653708186389    1.55089426817431
N        10.04334752888958    3.41610048160185    1.65690299777022
Nb       12.41634913405398    5.09797751855437    3.40304824120634

