18
CSD_code = KAFCAV | q = 0 | S = 0 | Stoichiometry = C8H4CrN2O3 | MND = 8
Cr        0.77660734821744    1.51455556301652    2.01435102961820
O        -1.58458509116981    1.76437890259120    0.48935607509775
O         0.13403576421053   -1.40153830358805    2.09581684584024
O         2.08837390074861    0.81707086077422   -0.57723535873568
N        -0.60631424325222    1.66962752100852    1.12734306078551
N         4.46678432541553    0.46817469163514    4.07261322977164
C         2.38392391055545    1.84310503743580    3.53513885462009
C         2.34135656373464    2.99629851567045    2.69705423430063
C         1.08868766422850    3.60354247502667    2.86347126168915
C         0.34814703660245    2.84802080653462    3.80757970777152
C         1.13691332585012    1.76793733564116    4.22633971719113
C         0.41713883139115   -0.29525709478854    2.11703863115946
C         1.64526722316526    1.09826572335101    0.43732407967599
C         3.52500561069091    1.07210889279962    3.81443947109267
H         3.18311818169545    3.39758795838842    2.14968145762665
H         0.79369302109116    4.56053615412974    2.45684352680934
H        -0.60354611333939    3.13647708370707    4.23168158680793
H         0.91579274016434    1.08480787666644    5.03486258887783

