45
CSD_code = KAFDON | q = 1 | S = 0 | Stoichiometry = C21H19N4Pd(1+) | MND = 4
Pd       -0.94795345673201    3.60823920655678   -5.72362047633794
N        -2.06628762693256    2.59937624681226   -7.33192555989648
N         0.00019158311032    1.42776814344324   -3.88840314720030
N        -2.07957733624167    5.05923672597361   -6.40057657508510
N         1.41719870485377    1.78892958058952   -5.46371069091130
C        -0.29464248561778    5.04018771572949   -4.48290926095366
C        -2.89800395560445    3.46307481924654   -7.95194627771625
C        -0.98055007183922    6.25950317711371   -4.71579259470439
C        -1.97696715214201    6.24652742469474   -5.78918645865236
C        -3.75565947886548    5.86155872788825   -7.86333185170452
H        -4.45168602091637    5.70512426848596   -8.66979191079016
C        -2.92899802174169    4.83737219203164   -7.40749346651482
C        -1.98780672088883    1.34831769580939   -7.76663222322957
H        -1.30673411204874    0.69602882523007   -7.23174791025688
C        -2.72593747937552    0.87566310155960   -8.84070209011100
H        -2.62996468433525   -0.14968355056419   -9.15793799400242
C         1.94019855895206    0.79445429471443   -4.68044153771396
H         2.88558757685961    0.33507888138740   -4.88215393769669
C        -1.16900113633666    1.56055575649135   -3.05897396820796
H        -0.88527992094683    1.82734868479911   -2.03966549164717
H        -1.73473248330696    0.62760991157503   -3.03515926317155
H        -1.79558390263536    2.36372625933857   -3.48184502260908
C        -0.69264219289395    7.38883685886931   -3.95133768438490
H        -1.21757829078828    8.31517673712864   -4.12809180398377
C         0.22521681028651    2.17807512931675   -4.97992162496624
C         2.03261899188676    2.37765848749966   -6.62456713814115
H         3.01466077042015    2.78055359360718   -6.37301805293221
H         1.38326984312438    3.19915833087213   -6.97307362563033
H         2.14836652025823    1.63823018680710   -7.41948482468226
C        -2.78217482489576    7.30858540673417   -6.20964868715354
H        -2.71500673466599    8.27122006076428   -5.73122501241726
C        -3.58133097502192    1.75212147087211   -9.48925864830317
H        -4.17157790277539    1.42566038319242  -10.33121407751426
C         1.04622115216658    0.56717230461345   -3.68638215952812
H         1.07699830427373   -0.12542939044573   -2.87097822834555
C         0.66736698435984    5.01172026812500   -3.48337762347482
H         1.22033742318679    4.10324370662936   -3.27653357962886
C         0.26914476923919    7.32891721854230   -2.96056509523762
H         0.48926188208273    8.20470656929707   -2.37009098218746
C         0.94875035209040    6.14564891509294   -2.72953302825999
H         1.70298191992847    6.10032572404653   -1.95823962717746
C        -3.67069908536201    7.10433464933185   -7.24975406888818
H        -4.30264569317895    7.91122718069094   -7.58707959568991
C        -3.66808650944869    3.05913883489692   -9.04031488011580
H        -4.32536389153824    3.75501928461603   -9.53446224225495

