84
CSD_code = KAFDOM | q = 1 | S = 0 | Stoichiometry = C34H40ClF3N4PPd(1+) | MND = 4
Pd        3.52267552310608    2.87430912705154   -0.12089615085511
Cl        1.47110332307603    3.81225685797058   -0.88725819197062
P         2.22609588887950    2.33074785851425    1.61806083039795
C         0.57615804644831    1.58418000145493    1.17796399585120
H         0.25264569337127    2.16955033680296    0.30687828664316
H         0.71459604901820    0.54601806556380    0.86190060092819
N        -0.45091738292587    1.68051584396975    2.23538644415585
H        -0.19029789552093    2.58048247172412    2.81776914126450
H        -0.34043985682620    0.91133526126272    2.90467055441803
C        -1.82799397278566    1.68028813416951    1.67241055978165
H        -1.83547299521602    1.02099760388283    0.79924072151714
H        -2.06215113899712    2.69091853804826    1.33494515271070
C        -2.85211875615465    1.18813734156236    2.65868595839797
C        -2.80872374687989   -0.13677485445382    3.08372081492314
H        -2.04909383395216   -0.80493987368638    2.70260722686942
C        -3.75516199911153   -0.62869404523165    3.96100893635362
H        -3.74159496321481   -1.65633325947243    4.28713295420695
C        -4.75356787076615    0.22272573572197    4.40784995981442
F        -5.67019102217640   -0.24619571447724    5.25943959184298
C        -4.82605840781025    1.54121980180853    3.99257188203432
H        -5.62664285090842    2.17049783133873    4.34590098569333
C        -3.87025903262989    2.01688649616411    3.11312242220414
H        -3.93532849167746    3.03644292230740    2.76476813993556
C         1.62828761811171    3.92230468098744    2.34872770622513
H         2.51385886522356    4.51844836165048    2.63382017219998
H         1.10417079792804    4.46427668499770    1.55315274924957
N         0.73631713814726    3.69486059957616    3.48258008315553
C         2.62083408179439    1.41091222012654    3.18126689215225
H         2.70490504230969    0.34636815414933    2.94254250380291
H         3.60747355877452    1.75361137301303    3.53879234112461
N         1.57143711530301    1.59324619130726    4.16676222332885
C         1.44609361950762    2.98729165905209    4.54206987452759
H         2.43379065963332    3.45325515980569    4.73546641829714
H         0.84620615233673    3.04425861153821    5.45234683994734
C         0.14644814178411    4.95868721833581    3.95051342874468
H        -0.44887079786496    5.36176040601023    3.12506878951166
H         0.93657241049503    5.68560704242303    4.18069944452127
C        -0.72542708723931    4.77116127030372    5.16491700325488
C        -0.48063335189461    5.49964951479015    6.32290810126369
H         0.33869604622136    6.20205083594762    6.35340165648672
C        -1.28205546821180    5.34694324792275    7.43913661554935
H        -1.10537177003389    5.91439777956623    8.33841635257746
C        -2.33421467440738    4.44956516540091    7.38757738776131
F        -3.11496397579139    4.29657974375472    8.46322414113721
C        -2.59571687765734    3.70376852055580    6.25076114721046
H        -3.42499766375298    3.01517809991372    6.23916424885602
C        -1.78536583110608    3.87137542579227    5.14493544033337
H        -1.98835127089540    3.29796216366043    4.25484873367247
C         1.76368496826624    0.72749665392042    5.33654319912459
H         2.68303899139481    0.99143721146803    5.87814352853510
H         1.86915536553275   -0.29666644256583    4.96896663912987
C         0.57750461372065    0.81480104423200    6.25910171502858
C         0.67088054572525    1.46726809997056    7.48314803293627
H         1.61384139655689    1.89255932682681    7.79330027127600
C        -0.42487288044290    1.56703130956023    8.32050457709802
H        -0.36081836252536    2.06355786560999    9.27501596668763
C        -1.62278563239679    1.00435726902958    7.91733431718853
F        -2.69341450827113    1.09417217002371    8.71470679104338
C        -1.74522444074780    0.34894949759654    6.70412715876333
H        -2.68935203528427   -0.09145606410256    6.42849249644028
C        -0.63976184624666    0.26128634235893    5.88118927844838
H        -0.71980525354544   -0.26946222167135    4.94381144630567
C         5.25706885334148    1.96813959540844    0.33494340570770
C         5.44160693599216    0.82999831834208    1.10540340218620
H         4.60817683176058    0.38597310257131    1.63635672023909
C         6.69223688838791    0.23372979490531    1.20124434401353
H         6.81858345606260   -0.64851164305419    1.81112289344328
C         7.77078017399733    0.76280199940888    0.51717678881516
H         8.74243857289129    0.30058718707382    0.59470255404317
C         7.59708500094863    1.87852383793647   -0.28396545380201
H         8.42984038263380    2.28431688616972   -0.83959767119786
C         6.34877629509389    2.47392772248954   -0.37922043924535
C         6.08147752919782    3.67398677281878   -1.24690279503079
H         6.24725370736008    4.58764522962789   -0.66187561233627
H         6.74401317201039    3.70584335048462   -2.12327154802164
N         4.66757671452296    3.64507296309390   -1.67287880036335
C         4.25700140664471    4.97192610905821   -2.13543191163427
H         4.91488558284255    5.32199728610165   -2.93959206788533
H         4.29820117955019    5.68250105766091   -1.30500807798772
H         3.23390529926478    4.93891792984879   -2.51291974194290
C         4.48297779021045    2.66710208800290   -2.75205098225649
H         3.41747965587225    2.58158282539020   -2.99201357208892
H         4.86049370109932    1.68882435746718   -2.43724066097300
H         5.02128716341925    2.98008855443254   -3.65544730369172

