47
CSD_code = KAFFED | q = 0 | S = 0 | Stoichiometry = C20H18CdN4S4 | MND = 4
Cd        4.58952667538212    0.00010099100318    9.30805970233041
S         4.52670843930519    2.00883053597715    7.74575243108224
S         6.95703793511962    0.02731703538367   10.76965098549000
N         6.97908501722403    5.07425320033542   10.00023292986622
C         6.89715606205469    5.07131869182846    8.67615994543736
H         7.47907112020236    5.83622196565936    8.17464130671186
C         6.14803445160692    4.16918218364221    7.95213772727785
H         6.11382026479767    4.19967312061024    6.87354274338813
C         5.42191658130154    3.18861536417680    8.63950221903228
C         5.46563866747948    3.22408429957130   10.03714631816103
H         4.88394996612159    2.52064920341794   10.62701711897985
C         6.25452851640874    4.17528728633552   10.65236046250231
H         6.31856116080516    4.22198702783502   11.73196670942643
N         9.02850363278715    2.68412468687398    7.86324523219551
H         9.43563252060332    3.33850612182848    7.21030761364453
C         9.20404909868884    2.87242861355124    9.19449731242922
H         9.81426536905771    3.70966739022693    9.49294044430006
C         8.61590685696840    2.04535560617021   10.09414065345213
H         8.74942309592322    2.20049674741531   11.15205597351343
C         7.77103849941717    0.98726340121777    9.65927315443256
C         7.66137271208579    0.79865796772715    8.25070752874781
H         7.08006707207190   -0.02978869865373    7.86327684682095
C         8.27855011830532    1.65560379064970    7.39838993427275
H         8.19524304376396    1.55757931529014    6.32727494144669
S         4.65138164473850   -2.00694546585589    7.74657223704886
C         3.75837243833388   -3.18846638448611    8.64021339334317
C         3.03219770570981   -4.16906198514873    7.95298462947176
C         2.28330608360765   -5.07127710765564    8.67713660096851
N         2.20133178811327   -5.07402740011185   10.00120622731306
C         2.92505497865995   -4.17429298525281   10.65321368939107
C         3.71362685265606   -3.22294357208944   10.03786974400116
H         4.29458238012631   -2.51881532385310   10.62762890822234
H         2.86135861498697   -4.22110387389760   11.73284656439293
H         1.70261205905608   -5.83724702921636    8.17577751804111
H         3.06654578957211   -4.19984640019791    6.87442189785877
S         2.22018599972070   -0.02572138082555   10.76933718905674
C         1.40748687636319   -0.98715030709932    9.65927610197910
C         0.56297854701721   -2.04537581971860   10.09450440347927
C        -0.02449312121193   -2.87325535214525    9.19512351484520
N         0.15115902049349   -2.68548306816927    7.86380483126457
H        -0.25541213339179   -3.34047815140536    7.21111832725132
C         0.90044050721947   -1.65663933997473    7.39858299683691
C         1.51694060876651   -0.79889058984364    8.25063376652958
H         2.09791429101003    0.02972106605082    7.86290720125149
H         0.98421251198760   -1.55931026417660    6.32739482966344
H        -0.63415605307680   -3.71081693663375    9.49386764135993
H         0.42918573206673   -2.19998817636489   11.15249755146033

