58
CSD_code = KAFGEE | q = -1 | S = 0 | Stoichiometry = C25H19F10N2OPt(1-) | MND = 4
Pt        3.87715743938482   16.29838712748460    3.89976565479918
F         2.76641900537070   18.51782288855158    2.18090650701882
F         0.50925878060677   20.03765193631356    2.27251157622677
F        -1.25053455732213   19.73990912432455    4.34331934087852
F        -0.72424390395052   17.92616634862677    6.31903216959173
F         1.52560627007002   16.41328923300195    6.21592452302405
F         4.66795328418366   14.88054836968504    6.71034921644803
F         5.57675745857743   15.89137892975609    9.03075900266832
F         6.00599938074259   18.58296673318409    9.29723100495568
F         5.49749810644467   20.24087866715851    7.17595152151895
F         4.58641301944979   19.22170434173312    4.84400341510377
O         5.09111553927583   14.32350357459372    0.91135371302374
N         3.45205809312467   15.45620420222647    2.09956569844412
N         5.45400688237062   15.11514031555911    3.11798983076891
C         2.21690527493627   17.39901833428980    4.18112197373285
C         1.90861953973210   18.35255870274288    3.20820306164503
C         0.76639361386321   19.13758037374378    3.24112586564103
C        -0.13070572579126   18.99122164527198    4.29291991900284
C         0.13967285377092   18.06707244456538    5.29315794465931
C         1.29482477065032   17.29962438683136    5.22074768793125
C         4.58351612109391   17.00611887997318    5.66683136717017
C         4.85178811631552   16.21674579235591    6.78812762559336
C         5.32202178999081   16.71646660485374    7.99486018266789
C         5.54316195385964   18.07955454798499    8.13572105212347
C         5.28534642195725   18.91489804098008    7.05650980833893
C         4.81811004660076   18.36965723411686    5.87010539275314
C         2.42328805334963   15.49348090961469    1.17167136237498
C         1.11040470232778   15.56319952880829    1.64603546401785
H         0.94438006374290   15.55369431765626    2.71514255380045
C         0.04912503392567   15.64348735290837    0.76907178474119
H        -0.95988302616129   15.70326064908172    1.15383540613529
C         0.27140543464910   15.64627360529949   -0.59884984252216
H        -0.56055145763366   15.71209002279896   -1.28604607102530
C         1.56830094124875   15.56480155999891   -1.07740310336275
H         1.74949524743084   15.56624980045322   -2.14400235498393
C         2.63855043390467   15.48896178429903   -0.20783845917528
H         3.64639831385665   15.42665996553952   -0.58660157155908
C         4.63425964432223   14.91653216243943    1.87419842449284
C         6.68216325814403   15.83865922910325    2.75252188489921
H         7.23406006599646   15.25163890037049    2.00243800675110
C         7.57556388232579   16.09038543625472    3.96560903989330
H         8.39686443006188   16.74377745401387    3.68028567687858
H         7.99871530129409   15.17013807242866    4.36023585436092
H         7.00139986416797   16.57966804747270    4.75157781045464
C         6.27742193805276   17.17502653003159    2.12582851330613
H         5.77759732011398   17.02047228097985    1.17206911828631
H         7.15583952647699   17.79349377819574    1.95408536308546
H         5.59310179680294   17.71283546026972    2.79248601333020
C         5.65554235481860   13.82618710419721    3.80970611416640
H         6.10995193737749   14.05056447597842    4.78197827668607
C         4.29179949498123   13.18519874234111    4.07123706013568
H         3.61011899614324   13.91861701733983    4.51713357832595
H         4.40237453593596   12.35778243714183    4.76820190891040
H         3.85725278746747   12.81072946270213    3.14596314066251
C         6.55794476356844   12.84927897858132    3.05021028331213
H         6.20827558477614   12.73743355395457    2.02701277731605
H         6.52931151939174   11.87869862519116    3.54086726900284
H         7.59150768217811   13.18905397453653    3.03084366153514

