68
CSD_code = KAFKAF | q = 0 | S = 0 | Stoichiometry = C27H35Br2N3Ni | MND = 4
Br        6.06775252314860    2.38217069522416    2.90017311002521
Br        6.42709028174655    6.43356233138207    1.37663712511529
Ni        5.81462992395659    4.29220798899539    1.78010903629382
N         3.68311030863896    3.81386587818421    0.84085168909807
C         0.52319651983648    2.50958702850007    2.30206569885909
H        -0.01179205387925    1.58403196285630    2.44453096304309
C         7.35649102284914    3.82387663590162   -0.56386768329226
C         4.93927407317582    3.78638430325608   -3.34230972916983
H         5.57941839358495    4.17885877099376   -4.12873322024593
H         4.08187765001688    4.44503415852813   -3.22321785771600
H         4.57025367412862    2.81106749276339   -3.65533215929430
C         4.56469007858199    0.80461322421468   -1.44056606725545
H         4.35207311663967   -0.25935332464898   -1.36213455512258
H         4.97720276168912    1.13462474608769   -0.49068188031156
H         5.33694044709884    0.92829339891433   -2.20156112661514
C         2.44651697331924    3.69337306980787    1.49819375426468
C         1.81552402660633    3.45438147580351   -1.73843247581486
C         1.92825525392284    4.88361378070178    2.04818880796499
C         0.97631641882254    2.81160065511072   -2.63763772499196
H         0.07146361014936    3.31084198320475   -2.95242836964925
C         5.72851802925570    3.71428953125704   -2.08748952007306
C        -0.03957721074569    3.68742801482799    2.74395898642136
H        -1.01814511813071    3.68669585320100    3.20046666783174
N         6.20457930728182    3.75959978312377    0.08043311265425
C         2.98669917740338    2.81095986796859   -1.32781598628126
N         5.20875286965413    3.66911292647229   -0.82550511785938
C         2.72933420501407    0.43680037723039    2.70849933516773
H         3.43679909835851    1.03049808838577    3.28013366475909
H         3.18486070601643   -0.52939873007858    2.50553776951273
H         1.83837571326142    0.28257066787560    3.31208229063619
C         3.90165818376834    3.45831829521768   -0.36791932886940
C         3.31598664552408    1.54367640423280   -1.83252007054886
C         1.46437902038547    4.83227876067420   -1.26836184350062
H         0.90920050884221    5.36266403730145   -2.03913115061064
H         2.35005307314909    5.41060664024182   -1.01518648419420
H         0.83527957159556    4.77610158753631   -0.37976271752000
C         2.45105168857992    0.94116896795240   -2.73192792362568
H         2.69689407623008   -0.03751877191272   -3.11840587051422
C         1.76889583968186    2.48087199957088    1.68536838324756
C         1.27512832415358    1.55612674214569   -3.14200542174068
C         7.09381567988567    3.79494743497545   -1.94365750704253
H         7.81971776124012    3.85438202957970   -2.72815636057695
C         8.64679660926540    3.94037422960476    0.15515949817712
H         8.49097660289680    3.75083955988844    1.22130001158191
H         9.04465405261632    4.94858683356624    0.03954968537852
H         9.37309104628552    3.23245591001293   -0.23760643327177
C         1.99230781745694    7.43768859213081    2.11164204901359
H         1.24374093376601    7.45801456759400    1.32200947264854
H         2.67496731659701    8.27073146174272    1.96005817582842
H         1.49919969558934    7.58101916478341    3.07003056349790
C         0.68230581267916    4.86362557317846    2.64895256298238
H         0.26954842717089    5.77197167615640    3.05646956327715
C         0.35969596623670    0.86455459833544   -4.10272594948491
H        -0.45583575635427    1.51643530988118   -4.40386712621030
H        -0.06238406813751   -0.02702781531063   -3.64013568987525
H         0.90526386683360    0.54999361884571   -4.99086353918188
C         2.77987355790457    6.13091472612383    2.07800306853182
H         3.41987365149115    6.15564542646480    1.18972894014836
C         2.38533875222765    1.13662022900053    1.38935690224661
H         3.32108324110782    1.28038497229601    0.85131059170615
C         3.67461772929805    6.01255314949914    3.31853905226695
H         4.34823912361758    5.14058358255516    3.21852710093643
H         3.07297932888536    5.86018809985932    4.21313206305294
H         4.27833513318901    6.90865804785121    3.44312080272044
C         1.45951782400439    0.25564226835729    0.54788196347984
H         1.07102025212457    0.80211967171176   -0.30826043243598
H         0.61887421755929   -0.09666527493567    1.13993811550769
H         2.00197671123423   -0.61542494280480    0.18786674499845

