69
CSD_code = KAFLAG | q = 1 | S = 0 | Stoichiometry = C28H34ClN4NiO(1+) | MND = 6
Ni        2.30811517324099    7.10087400862389    9.95060883563452
Cl        1.03481893102747    5.44716019997231    9.79405332907171
N         3.20202255364395    6.49535993239052    8.33029179701144
H         4.09147756749105    6.99912047411121    8.30088414753380
H         3.41293173218757    5.49770387777496    8.38527948577224
N         1.14891049078076    8.40562984466005    8.30799126856459
H         0.28331670592480    7.86989346577258    8.22437733276192
H         0.87511125449204    9.38308992337726    8.36852230953573
N         3.70098925004185    6.14603350853615   11.65637883766271
H         3.43874080571394    5.16393755639081   11.55936183371492
H         4.71684576124837    6.16969515002530   11.68746361308051
N         1.33054411610980    7.63089840272848   11.59168513645674
H         1.51301657053467    8.60832718039915   11.82861793367719
H         0.33052333527103    7.55369898674565   11.39604517020933
O         3.72530905771391    8.75843461939314   10.01707332791476
H         3.36158924788401    9.62398496344974    9.81201098064122
H         4.22628343937403    8.82496916427351   10.83445429308775
C         2.46755368530298    6.75069383316818    7.08002480614914
H         1.60915052491884    6.07116384313884    7.06146977417252
C         1.93459167432165    8.20190442352511    7.08067880876298
H         2.79178229638791    8.88452565004318    7.12047682571961
C         3.31866570971907    6.51939583300951    5.85193270445679
C         4.55699582161709    7.13535057317587    5.71407098828706
H         4.94490293614141    7.77406458460798    6.49700319777880
C         5.30698521062017    6.95158169208615    4.56636653914532
H         6.26745280479755    7.43466425882764    4.47035027034489
C         4.82452612798051    6.15498735870607    3.54210079073114
H         5.40882023036850    6.01494829393965    2.64617746852340
C         3.59054185391372    5.54136337744019    3.67102405539969
H         3.20803183344482    4.92113890406079    2.87552780731605
C         2.84267065261418    5.72078808170867    4.82114268748116
H         1.87891888971263    5.24331552295779    4.91652604989883
C         1.16638379723643    8.44725559963552    5.80095568290769
C         1.70096127571882    9.25982636103686    4.81057181319420
H         2.66021837532557    9.73281091190906    4.96543615366970
C         1.01927213528580    9.46065734373458    3.62367643323867
H         1.44670266137462   10.09276945608376    2.86071902410514
C        -0.20647932640700    8.85210427979403    3.41630838123643
H        -0.73909334863004    9.00840949224528    2.49122266987111
C        -0.74633674208542    8.03995640286718    4.39892260604040
H        -1.70025754726375    7.56022286078478    4.24167848520101
C        -0.06248406369135    7.83561851504302    5.58366215419708
H        -0.49285714295025    7.18750819735106    6.33521748143749
C         3.15828661210919    6.64155174359897   12.92968282329107
H         3.59171262735924    7.63230054023450   13.11682001974256
C         1.62746269524493    6.79556173002482   12.77246814280341
H         1.20795491814379    5.80389797931440   12.57663055081077
C         3.44741283420182    5.75139235011211   14.11829325783999
C         3.14897334858115    4.39467868162044   14.07381783255995
H         2.71605495634179    3.95762026661898   13.18411185654690
C         3.39311638076444    3.58830753482161   15.17051707282147
H         3.15829398262322    2.53596089267331   15.12407875756072
C         3.93206719079760    4.13004750446911   16.32503755318965
H         4.12032834157534    3.50066485391382   17.18075925158356
C         4.22647492374101    5.48131828999210   16.37843021288954
H         4.64448555596834    5.91019429988786   17.27601346813570
C         3.98603769061947    6.28714630371787   15.27981967145532
H         4.21374856388329    7.34257137591822   15.32904671850677
C         1.03198301283161    7.35201961718389   14.04498592923873
C         1.26992690273881    8.66474142440719   14.43491385549200
H         1.87161265320356    9.32306921914297   13.82058219164358
C         0.75292155184222    9.14940424272529   15.62287276368600
H         0.94436472466910   10.17102298838033   15.91403913157993
C        -0.00256197241341    8.32419500116818   16.43789598995075
H        -0.40262876337794    8.70183157819596   17.36573445848296
C        -0.24007047188729    7.01414262284659   16.05911116380203
H        -0.82597023831337    6.36537445295331   16.69120131200129
C         0.27244850400485    6.53168410623744   14.86812366254854
H         0.08759715624957    5.50846349034478   14.57736906025719

