80
CSD_code = KAFNUC | q = 0 | S = 0 | Stoichiometry = C38H33NO5P2Pd | MND = 4
Pd       -0.36104911643357    3.75510207450462    4.08372947380337
P        -0.92371418244362    5.68454196806888    3.05114610727518
P         0.29147186801033    1.87184777999811    5.17817124202636
N         2.45835843845386    3.98948613126836    3.84485736418291
O        -2.47560433715512    2.46685414219944    2.78603165806284
O        -2.97165484361450    3.55463416524764    4.69209573613767
O         1.64404780138620    4.69150909885937    4.49367968968958
O         2.01586198184990    3.03503992764993    3.19492306774285
O         3.63602239018326    4.25470431098463    3.87150156509381
C        -0.88265725600280    7.08780581501307    4.19596143697334
C        -0.53885104179961    6.81354503006773    5.51653716296392
H        -0.29342743396265    5.78738162343196    5.79906577716491
C        -0.49389159966239    7.83926640565238    6.44348903652184
H        -0.22113400168700    7.63297451196850    7.46789108355172
C        -0.79830774478419    9.13422474234115    6.05520312550557
H        -0.76054655386780    9.93651988561695    6.77751400667723
C        -1.15541206314065    9.40621596835449    4.74326179589699
H        -1.39764993294570   10.41686438199253    4.44805274402457
C        -1.20360186434987    8.38601196508007    3.81089080966827
H        -1.49722357038896    8.58781414363072    2.78913215453065
C        -2.45493800777398    5.96451301442885    2.11421550215878
C        -2.51077085566150    5.87699727132028    0.72846251018828
H        -1.60817850150734    5.69034713611733    0.16336307380493
C        -3.72170200553375    6.03183628524588    0.07671824817590
H        -3.76232394731445    5.96509988716740   -1.00034850629300
C        -4.82817006236382    6.34427577641961    2.18382642997278
H        -5.73160677765632    6.52209248442965    2.74911999388216
C        -4.87893033171780    6.26498894884399    0.80050827822452
H        -5.82235168872030    6.38090405828463    0.28815971580693
C        -3.62217458079487    6.19224055938631    2.83967863418360
H        -3.57127677016518    6.24659294287646    3.91970395816447
C         0.40921215157698    5.88646224802302    1.83690195440741
C         1.14081447202220    7.04760217097920    1.63118521548900
H         0.90090158754338    7.94584281169045    2.18227384380196
C         2.19832260526206    7.03490217547317    0.73716419489761
H         2.77853732576551    7.93283331749432    0.58306009773735
C         2.52532193978582    5.87384542866718    0.05659433927560
H         3.36169349750162    5.86952254750174   -0.62633606156290
C         1.79799854256976    4.71121903437753    0.26425230275368
H         2.06871703585384    3.80138181370677   -0.24948192605110
C         0.74442374532416    4.71219463138379    1.15793537372896
H         0.17919343305217    3.79707029379159    1.35735200596928
C         0.49289081820486    0.39540707945113    4.15096045839360
C         0.98693053545212   -0.80569643717386    4.65280238675871
H         1.28745280804083   -0.87587436689320    5.69013421874266
C         1.11524108515355   -1.89673024685359    3.81322376619688
H         1.49707793854558   -2.83073084446217    4.19976289085211
C         0.76325035714782   -1.79097863284989    2.47636486440163
H         0.86854447706478   -2.64671015314146    1.82542262439469
C         0.29223122202152   -0.59002181216499    1.97171510248906
H         0.03327270341514   -0.50783691954479    0.92671746330285
C         0.15771213879109    0.50544975556008    2.80575258649323
H        -0.19558660932347    1.46016554967548    2.42353341986263
C        -0.97402145522151    1.48094415196908    6.43418669228601
C        -1.42330397454132    0.21074973682586    6.76480277890890
H        -1.01563923908700   -0.65578848218862    6.26530440476196
C        -2.41293688323657    0.05784349857473    7.72198760010693
H        -2.76586657205470   -0.93191081233603    7.97279182497898
C        -2.95283272315497    1.16501119105043    8.35393342263058
H        -3.72401948808994    1.03774187812405    9.09944901118388
C        -2.51486901757838    2.43768243408352    8.02000807160551
H        -2.94610758806055    3.30258642896851    8.50264934943165
C        -1.53700599047815    2.59512508574308    7.05735923514066
H        -1.20885492841207    3.59388904230177    6.75588203555985
C         1.82019953534382    1.92607444411169    6.16618207901958
C         1.81766634994201    2.46513606477882    7.44915783973745
H         0.88974996793640    2.79494719533972    7.89633348000211
C         3.00165000256295    2.57885092936101    8.15410434713933
H         2.99356352798595    2.99833006527591    9.14977333543226
C         3.02279901769976    1.51937217706628    5.59343049869216
H         3.03176469940436    1.13031617111993    4.58491745098401
C         4.19475215769050    2.16769099846753    7.58341083679560
H         5.11906891940842    2.26793405661634    8.13280356090856
C         4.20270169328975    1.63955266476379    6.30314622629642
H         5.13214382616518    1.33220004887898    5.84828711320276
C        -2.13517769400632    3.10640910466239    3.74766220173807
C        -4.34309260213419    3.17209934229988    4.57041661736450
H        -4.68998750059095    3.34980109876601    3.55044812405271
H        -4.89833524509253    3.78075661162068    5.27939191744703
H        -4.45497601496507    2.11290299245187    4.81074594650605

