63
CSD_code = KAFVEU | q = 0 | S = 0 | Stoichiometry = C26H24CdN10O2 | MND = 7
Cd        2.87123348058594    1.25667282012588    3.65742291017197
N         4.86763091656197    2.56114197870267    3.72089120787005
N         6.47728086550237    3.53518769794712    4.89519500244707
H         7.18767332232437    3.66059928416652    5.59700377755864
N         4.16583538502483    0.03313140028747    2.04348142789347
N         5.12776435856399   -1.94409252991374    1.74383365036500
H         5.72354835595486   -2.73720233430873    1.91322164984061
N         3.11226840233429    0.47985208393802    6.08899712490297
N         3.03941298833841   -1.51426835242615    7.06993434899292
H         3.24590956086771   -2.48765257131124    7.21945576215920
N         5.40989989553256    0.01547476019525    4.68094673642729
C         4.97766161552261    3.86480576234660    3.30015937558976
C         4.29519612295035    4.55520623841576    2.30499006116927
H         3.53238860469659    4.05921601294096    1.72609287606459
C         4.63276661242394    5.87821982939849    2.10766778464196
H         4.11959140629656    6.44942926847528    1.34869550386630
C         5.62614710945788    6.50684785290331    2.86228129264901
H         5.85293405827701    7.54528803741199    2.67210971026876
C         6.32850883823896    5.83209756066348    3.84154418518672
H         7.10112827497808    6.31658085831183    4.41955395211231
C         5.99212110295528    4.50406197435074    4.04595231674413
C         5.75759830602995    2.39972996955336    4.65688277778009
C         6.00172246365580    1.12332883095208    5.39365764639501
H         7.08875976600087    0.99143274704114    5.56469530171030
H         5.50736426970536    1.19665890055105    6.36693367658659
C         3.46675372475409   -0.64374991517075    1.07280157747507
C         2.33708293727410   -0.26828035576546    0.35406844242008
H         1.87416033288784    0.68933116020696    0.53807647460759
C         1.84351513299344   -1.17754980003139   -0.55756584097489
H         0.96300985198627   -0.93041687184073   -1.13148914982070
C         2.44462365674702   -2.42374322723563   -0.75640690289217
H         2.01599693991200   -3.10347087698093   -1.47795090336589
C         3.56308540926883   -2.81359660287914   -0.04720386459515
H         4.01632585143249   -3.78260684989953   -0.19166117514649
C         4.06415333284685   -1.90629146059143    0.87200948070601
C         5.12342582054280   -0.76515556852444    2.42667409887285
C         6.11600900786812   -0.40469570075712    3.48593464314657
H         6.79824124899675   -1.25150092124100    3.67553158873637
H         6.70536305636794    0.44159360637270    3.12094071889487
C         1.97157132993514    0.41490248781907    6.85753110957626
C         0.97197112699057    1.35794897489248    7.06424262709974
H         1.02021311359292    2.31107610405693    6.56215668033771
C        -0.06649138385139    1.00250012617305    7.90009338551122
H        -0.86716298029326    1.70427540429090    8.08088818781546
C        -0.11965078830908   -0.24806697032893    8.52001944890490
H        -0.95521025862237   -0.48054901935270    9.16369486642136
C         0.86380235245258   -1.19773491310811    8.32384061384477
H         0.81623186232218   -2.16823771141686    8.79449140200967
C         1.90756228000135   -0.84935243736019    7.48303313203484
C         3.70052166465348   -0.67557179476446    6.22347183723791
C         4.96053230333010   -1.06903323186681    5.52258380551744
H         5.72676594141703   -1.38054213738698    6.26019820088946
H         4.71800969232917   -1.93085695349477    4.88968737932421
O         1.69712430069435    2.57639575049622    2.30231773137579
O         1.82902995289579    3.07091656185241    4.43766063399952
C         1.39177383760019    3.28248668584878    3.28688894738131
C         0.45789764846363    4.46941674490496    3.07383764938365
H        -0.49724853920899    4.25177334712839    3.54616317761598
H         0.30644144981449    4.64089175037586    2.01233262388171
H         0.88239866763301    5.35284457326423    3.54408411501559
N         1.71508280416154   -0.48526396394783    3.67199850051160
N         2.25717563086613   -1.50751466766959    3.79995458809204
N         2.75976560446239   -2.52501940676440    3.93677010876339

