67
CSD_code = KAFVAO | q = 0 | S = 0 | Stoichiometry = C22H31CdN5O8 | MND = 5
Cd        3.44432853705403    0.73894194458878    5.35927679193558
C         5.68357759210072    0.34945510438706    2.37734030521632
O         5.73607268832122   -0.25938341769413    3.64673038341056
C         6.81147517451419    0.00364049903666    4.44316094789059
C         7.89180790324663    0.80447531297880    4.08877946525826
C         8.90767794146760    1.04567325694076    4.99840320441259
C         8.87474714111566    0.47997460688891    6.25814853334090
C         7.82248255486637   -0.35249725231200    6.59783513688523
C         6.79450169970609   -0.60806184284311    5.70457932221052
C         5.66746409341776   -1.52664597473164    6.08306731279403
N         4.58629436997929   -0.80246322005495    6.76802007354787
C         3.75262626463143   -1.74724558295816    7.50516075339103
C         2.73566598472264   -1.06435251500258    8.41387004425514
C         1.51173915886035   -0.54426110425946    7.66478969402132
N         1.75627148356766    0.71340552229461    6.96393008308778
C         1.76864216218114    1.87814143878825    7.85410729493984
C         1.21992592105050    3.12427418910689    7.16495863859706
C         2.09421161962473    3.66590938142432    6.03659046747290
N         2.16162511895030    2.75664866229403    4.89306560664576
C         2.55664068553983    3.44427969555256    3.64818189531075
C         1.87156261072684    2.80720353511938    2.47122795270505
C         0.74218519292847    3.37926410408557    1.90820261178352
C         0.08978254315580    2.77724617036505    0.84578690211962
C         0.56390035711889    1.57901383380073    0.34600802386238
C         1.68769505245558    0.98508997038653    0.89388953782512
C         2.34255179901522    1.59181360480685    1.95861134086872
O         3.44508506829382    1.06872977281157    2.57282708547027
C         4.26781355129167    0.18287589628648    1.83664861845679
N         5.47751927518023    2.45515257438125    6.05748622024766
O         5.12354386124618    2.17386916213253    4.89784383039642
O         6.44520286169720    3.14716206885272    6.25323536317192
O         4.79949607111733    2.01447512513806    6.99654371864400
N         1.77494620372087   -0.80698043670618    3.78096373678581
O         2.83203634066414   -1.12511213698573    4.36720011835248
O         1.11140347809096    0.12958082317318    4.23304385451262
O         1.41755940409212   -1.42791564731414    2.80843636753723
H         5.89072689172622    1.42284585896201    2.46369944143899
H         6.40597028222455   -0.12418482880610    1.69700443792690
H         7.94510465763746    1.26520576456391    3.11599762103291
H         9.72658298822419    1.68859910711368    4.71472949426483
H         9.66083433405143    0.68061996644955    6.96888749934189
H         7.79871820960404   -0.81730200306422    7.57389031466716
H         6.06719990419255   -2.31200390686602    6.74631964765030
H         5.24320157513517   -1.99624708733550    5.19236084389381
H         3.23943007624129   -2.38012866099373    6.77488219674669
H         4.39094155193591   -2.39966096108350    8.12652568763526
H         3.21526233707801   -0.24246175741744    8.94873999304167
H         2.39625585716160   -1.79424661429844    9.15181610434032
H         0.68201639644855   -0.42141140458391    8.38131531034145
H         1.20800922215897   -1.28971062577528    6.92517249043469
H         1.14814145463452    1.67825694168611    8.74168798717852
H         2.79312729285665    2.06756063964468    8.18285354669042
H         1.11895372120613    3.91073275520555    7.91587395978171
H         0.21956251021470    2.91069067521568    6.77251262994958
H         3.10458830052484    3.84956058522515    6.41082977752454
H         1.67394449921030    4.63764933596365    5.72520414096638
H         3.64282714714952    3.38125452666807    3.54257326421624
H         2.26553355172493    4.50450929127826    3.69395590771065
H         0.37311875920854    4.31586004114756    2.30261104006790
H        -0.78750476685766    3.23808673694543    0.41829556471072
H         0.05429655409766    1.09136517257796   -0.47087283624358
H         2.01916061248830    0.02960157123536    0.52066820954971
H         3.93720573014148   -0.85424793074664    1.97096460505756
H         4.25355625522403    0.44541666853363    0.77226693168803
H         5.01516829857780   -0.16793829679495    7.44511518413312
H         1.22184385086417    2.39406308246547    4.72425294825386
H         0.98146017920456    0.82368823212223    6.31161481864230

