45
CSD_code = KAFZEY | q = 0 | S = 0 | Stoichiometry = C21H21AuClP | MND = 2
Au       13.92629410879749    8.04037608842760    7.22717436478924
Cl       13.92600297521375    8.04381134609074    4.96507172735188
P        13.92611969109037    8.03950047177526    9.46310331588822
C        15.26650705497163    7.05780296622833   10.25093214484914
H        15.20700447413543    7.16516622508867   11.33947863899821
H        15.09580008000821    6.01170889583377    9.97724621701375
C        16.57341773955335    7.55454351360542    9.70904160966489
C        16.98530738974140    7.17238656802021    8.43742089298706
H        16.38278843717663    6.47713284504926    7.86904782802780
C        18.15937427311072    7.66977802633939    7.90158567148064
H        18.46336941665950    7.36982462226595    6.91056066837514
C        18.93632348082774    8.55309096049359    8.63249841582127
H        19.85134053111272    8.94399703617066    8.21395690303934
C        18.53743796937719    8.93222160084047    9.90261356087091
H        19.14145135231575    9.61705221973616   10.47940535199441
C        17.35944473002569    8.43899963958417   10.43650220634854
H        17.05262539629911    8.73743665914768   11.42994305186461
C        14.10691927813380    9.69207882937620   10.24869102816531
C        12.40480686626147    7.37006061927175   10.24949743454838
H        14.04515384029575    9.58837507576522   11.33746335155344
H        12.52610481383939    7.36826065101878   11.33819845250505
H        15.09804304893927   10.06644646159053    9.97316407690382
H        11.58478836420389    8.04111150318133    9.97448839013954
C        13.02309473066087   10.57559096414529    9.70727015548413
C        12.18162606309294    5.98972777061922    9.70784800024594
C        13.14738812581890   11.12387722592107    8.43579282295720
C        11.64457122577312    5.82363093885278    8.43634710128169
H        14.05020222196741   10.94964519268365    7.86656810645927
H        11.34386577463592    6.69282065835355    7.86754487403743
C        12.12951642227543   11.89267338946376    7.90110980507066
C        11.48789800873443    4.55793752121478    7.90113150685175
H        12.23674016741756   12.30640691457105    6.91022502910609
H        11.07587712952561    4.44426595517499    6.91025144346946
C        10.97674853994647   12.12412246719951    8.63300943578749
C        11.86424185549786    3.44365532158140    8.63247365318831
H        10.18075302919613   12.72185231437505    8.21544675808735
H        11.74485721176159    2.45559988467395    8.21444922588786
C        10.84850029838450   11.58843775070626    9.90290788389862
C        12.39237043546810    3.60000898533071    9.90238514626650
H         9.95394568408381   11.76923957280651   10.48048602507500
H        12.68338298001027    2.73470276779082   10.47951082620211
C        11.86468696080839   10.81415020890904   10.43562026360768
C        12.55453328595695    4.86699945749126   10.43568442247141
H        11.76023267126025   10.39874887339738   11.42892748703298
H        12.96654186563524    4.98384303983901   11.42902472434870

