87
CSD_code = KAGCIG | q = 1 | S = 0 | Stoichiometry = C38H40F4N2O2Rh(1+) | MND = 6
Rh        1.29047436376592    0.00025437187947    3.95157234504631
F        -3.65641901875181   -0.23404883356080    1.23332917342843
F        -6.02369873567730   -0.11305877401520    2.59608073712500
O         2.68235924321565    1.48863956946099    3.53132946222744
N         2.46063962120396    3.52563988350682    4.46174043044520
C        -1.09030613951659   -0.13825695665993    2.66134080890930
C         0.08403027836969    2.16680411035085    2.18100399221617
C        -0.30189091360322   -1.22002265794134    3.39205640475024
C        -0.69847717328451    2.42163153680036    1.05485881383505
C         1.57382796353784    3.94017484493174    1.48127905149556
C        -2.46505629487467   -0.06501183535538    3.25901551512411
C        -3.66104283959700   -0.12289293887038    2.56744737355845
C         2.15953122483895    2.62971907830124    3.52694151036758
C        -0.29196469882160    1.09501642900466    3.11415344363700
C         3.37617338993533    3.15062865570969    5.55433826740819
C        -4.87035738711977   -0.05932087470851    3.25725193659329
C         1.22358710748807    2.96280775918154    2.40796951959359
C         1.06807319437350    5.09547860582714    5.77630776224637
C         1.87305626700852    4.86557977486436    4.49675218373799
C         0.79016263934190    4.17021102537455    0.36523964420726
C         2.77172321693225    2.05396341066852    6.43409992736539
C        -0.35573177721745    3.41884702529184    0.16171052818623
C         4.75504375931447    2.76202886056428    5.02577183228658
C         2.94740699306040    5.93742686178243    4.31710688396901
H        -1.59230400307608    1.84245758644097    0.88368224497592
H         2.48082870672867    4.50703837958707    1.62576179332896
H         1.07694529200674    4.92978869693290   -0.34443381357051
H        -0.97742722633131    3.60096232009894   -0.70058440334036
H         0.30227430723571    4.33255705084566    5.89616367827296
H         0.57300830626727    6.06014715148035    5.70996927766631
H         1.69663860437398    5.10292096291143    6.66200591097181
H         1.82714559833639    2.38058829355355    6.86346555849406
H         3.45876582555492    1.83519526001197    7.24667821033502
H         2.61354956209702    1.12434686584586    5.87427598674017
H         4.71483029066014    1.81935861804879    4.48916204075807
H         5.44146210608351    2.65878217194078    5.86154993292676
H         5.13767851207714    3.53119149692068    4.35949208394970
H         3.60497524838525    5.99542340699159    5.18002074623368
H         2.47257925703209    6.90587067883291    4.18957034457954
H         3.55211001416856    5.73333888994856    3.43719820845794
H         3.49430146827519    4.04711933850604    6.16589211041974
H         1.17697697289211    4.92573803236496    3.65601488020968
H        -1.10098563864101   -0.28034016948215    1.58205990938067
H        -0.11904090358294   -2.16353905847276    2.89066432816470
F        -3.65635392252992    0.23400317020395    6.66998639565952
F        -6.02368110348499    0.11245570300889    5.30732551049927
O         2.68240709667065   -1.48823016185708    4.37107726200129
N         2.46098720526240   -3.52601143947189    3.44235018002141
C        -1.09031829870125    0.13865739338824    5.24191698632639
C         0.08439048234229   -2.16601342864583    5.72253885581663
C        -0.30198470968539    1.22045207669029    4.51121388174996
C        -0.69783154695617   -2.42046897472338    6.84897358040150
C         1.57485897826452   -3.93853044055024    6.42302222100345
C        -2.46505577403824    0.06524463729574    4.64424762361782
C        -3.66102587702533    0.12286235902225    5.33586497392192
C         2.15975170981611   -2.62938868621552    4.37641914606447
C        -0.29184567930160   -1.09454400608524    4.78912906110811
C         3.37659202702072   -3.15175048935343    2.34956122128829
C        -4.87035225598799    0.05901201391630    4.64610955756731
C         1.22408277708402   -2.96186618607650    5.49578540741010
C         1.06814598597392   -5.09626251224862    2.12866176243422
C         1.87315578996008   -4.86586055497413    3.40810952897852
C         0.79158532486469   -4.16805640908061    7.53943255955484
C         2.77230190155962   -2.05552912985179    1.46914338452450
C        -0.35455136055333   -3.41698657278774    7.74268852584849
C         4.75544143684886   -2.76295722884738    2.87803912718318
C         2.94722005249520   -5.93789384508951    3.58835260549157
H        -1.59184711408614   -1.84153483419018    7.01996485967565
H         2.48199207268962   -4.50520193373290    6.27862385964024
H         1.07883797376717   -4.92700595545279    8.24958576675406
H        -0.97600357691912   -3.59875639442934    8.60523196361084
H         0.30261320932563   -4.33315349972778    2.00830471459127
H         0.57276643735255   -6.06072910281191    2.19555492214757
H         1.69676877579422   -5.10444433186851    1.24301094022907
H         1.82774484370349   -2.38233873358435    1.03988687494516
H         3.45942203082689   -1.83726655824963    0.65649335954290
H         2.61409487810262   -1.12562543505461    2.02843044916752
H         4.71524758794769   -1.81996786609514    3.41409274796121
H         5.44198248437069   -2.66026524009875    2.04229316010779
H         5.13791970778602   -3.53177018700659    3.54481553811698
H         3.60469940501280   -5.99663133999181    2.72542340517017
H         2.47210387956523   -6.90611279825403    3.71652851734031
H         3.55205122791529   -5.73345755465869    4.46809052642877
H         3.49468179634130   -4.04862031559872    1.73855618832831
H         1.17705521293393   -4.92538819755744    4.24887093193632
H        -1.10101707663214    0.28076409013725    6.32119146883652
H        -0.11919058021523    2.16398399482998    5.01259387029718

