55
CSD_code = KAGDUT | q = 0 | S = 0 | Stoichiometry = C26H25N2PPd | MND = 4
Pd        5.77670953208281   11.42778919224478   16.18220827289902
P         3.83431551609617   12.73252862389291   16.29157723458227
N         4.26539933713026    9.89025706301098   15.40803140371074
N         3.16355152015331   12.58403359916052   14.78261426233404
C         7.37934064046831   10.17035096660566   15.95193655056707
H         8.29238823899692   10.68887591092128   15.64498083682413
H         7.11176592699208    9.45380546565155   15.16040279171580
H         7.59556808414670    9.61835309899875   16.87671444046693
C         7.04037728167682   12.78336177978983   17.03620456963936
H         7.98060415673758   12.38474318621982   17.42252444148076
H         6.49653937366570   13.27117859827815   17.85918909386709
H         7.25781569703809   13.53777329319476   16.26537610363776
C         4.37858925926659    8.72313410691135   16.03473423513718
H         5.31974265469870    8.54071914223121   16.54304519236044
C         3.36785068652401    7.77592737688858   16.05762237008892
H         3.50475831077143    6.85085845456869   16.59466608295209
C         2.18733229700909    8.04408140780652   15.38226855622567
H         1.37521950923685    7.33245908058011   15.37816282733875
C         2.07204053193082    9.24697913696576   14.71054976824522
H         1.17210597208954    9.50420775238727   14.17284587236133
C         3.12983814726882   10.15345044185275   14.75652009831417
C         2.96064363506991   11.49319415243452   14.14017924137194
C         2.49534095639186   11.56201522838977   12.75607706207547
C         2.67279962034166   10.48991447035009   11.87971700074046
H         3.16903365893739    9.59245201309677   12.22011958246248
C         2.24380774735875   10.58329569729181   10.56953731060753
H         2.39160717552583    9.75114140020485    9.89701160213079
C         1.63030575273958   11.73997224276293   10.11598394277146
H         1.29318651239129   11.80670553378304    9.09227600321531
C         1.45537889710189   12.81236732706298   10.97744944464606
H         0.98084675092699   13.71601687074536   10.62433157198456
C         1.88640220956631   12.72763851176618   12.28573533043017
H         1.75352922121914   13.55278917021040   12.96847094668742
C         3.21260974665262   14.39182309155871   16.70412573709744
C         3.05775694212335   15.34536544970803   15.70612801279112
H         3.26752876290760   15.07103813727966   14.68239802908501
C         2.63663133881741   16.62199909281402   16.02964829149523
H         2.50743495182714   17.36115735001137   15.25191452931416
C         2.38650325379217   16.95678235650405   17.35072415208309
H         2.05854709416953   17.95481789883148   17.60249792153218
C         2.56582912763044   16.01458343430732   18.35109066240819
H         2.38055810917628   16.27896063765063   19.38227643892300
C         2.98464373120806   14.73643152138286   18.03140148551018
H         3.13158620597061   13.99755772716099   18.80861822851773
C         2.82028655844332   11.68004473105151   17.40612195097184
C         1.43389163082053   11.65674612866235   17.33039023585641
H         0.92656127548794   12.32007526686708   16.64247128990805
C         0.71712775761272   10.78441837028224   18.12971910831597
H        -0.36146132799692   10.76148575102305   18.06954377148571
C         1.38050863581529    9.93988751837406   19.00575035654428
H         0.81679220078944    9.25799973944591   19.62556600758096
C         2.76365064135339    9.96766854610512   19.08924827873386
H         3.27679575492242    9.31056485073071   19.77632894700747
C         3.48567395300276   10.83431941241817   18.28793401493507
H         4.58200884393045   10.86470269157340   18.32933850604156

