87
CSD_code = KAGJUA | q = -1 | S = 0 | Stoichiometry = C30H52MnN2Si2(1-) | MND = 2
Mn        9.18499886395999    4.76813503657404   11.60984775361842
N         9.66631996003892    4.95976143437123    9.65494793984595
N         8.69969981419761    4.92151295093508   13.56603229123177
Si       10.56424084996221    6.06510268606152    8.74256594624764
Si        7.83130496815155    5.99370375173796   14.54451069262464
C         8.84970137700173    3.93837398428918    9.20908817927498
C         9.35077238410428    2.61679540365613    9.04779460151918
C         8.50068634657867    1.60106587642948    8.65666469075734
H         8.87491417781523    0.59142222518023    8.55784810957351
C         7.16612536519021    1.84837043493639    8.37985180071483
H         6.51390479561276    1.04111350030214    8.07354617960122
C         6.67274840154526    3.13735489668638    8.49775158597545
H         5.62951507115586    3.31666015962426    8.27695673195936
C         7.48573479091214    4.18525163279551    8.88504329283946
C         9.99920308608964    6.16655609010357    6.91059589851070
H        10.76534298841962    6.59902521211797    6.27363513885080
H         9.09654441027181    6.75756037156834    6.79268069673682
H         9.78229292286674    5.16915749187442    6.53927845675253
C        12.46543296166167    5.73730977385593    8.63652213296125
H        12.87427626326066    5.48914500820855    9.61162250384478
H        12.99451076338353    6.61574555648392    8.27498011351393
H        12.70006442316926    4.91756959829070    7.96211514157388
C        10.38196781724644    7.77813436999894    9.59762664484595
H         9.69693582870788    8.43380223775880    9.06744702325814
H        11.33225035485174    8.29567789118237    9.68377889920167
H         9.98799453951926    7.63589470356567   10.60311845979788
C         9.48489416649326    3.85473147602999   13.96264381394006
C        10.85682161372016    4.04355853079624   14.29369562772465
C        11.63570016676997    2.95599492402592   14.63892838331028
H        12.68429572629319    3.09328762675709   14.86479181825339
C        11.10080867542637    1.68002633913078   14.70842713857036
H        11.72633032780978    0.84092644091214   14.98323082052246
C         9.75887504040559    1.48725041177435   14.42377778301116
H         9.35191316030389    0.48727024968248   14.48436639047703
C         8.94173382684346    2.54411058669673   14.07344190156518
C         8.36584701907612    5.92209712488151   16.38617569940293
H         9.33280357210406    6.38863011891055   16.54715609382977
H         8.45088153290888    4.88702477853373   16.70405922230852
H         7.64734337185543    6.41222179407117   17.03648213113017
C         5.91608171580611    5.74159743866041   14.58937985021136
H         5.51976967929388    5.58097067980872   13.59103763708340
H         5.41628477095003    6.61459751456188   15.00203629600899
H         5.63091388902273    4.88750466331370   15.19858889835223
C         8.09245325609711    7.76908909336265   13.85261314840697
H         8.86873568579243    8.30894729957424   14.38744336553411
H         7.18541784767755    8.36379272709074   13.90066785409502
H         8.39565427459199    7.70914050760910   12.80926238368730
C        10.80374134021099    2.36661732624503    9.37793737173660
H        11.34775106111779    3.27883430802425    9.11399917414619
C        11.42441642051722    1.19983627298063    8.61092774917215
H        11.03078275826150    0.24587000725181    8.95653963178739
H        12.50293369563258    1.19016861126149    8.76341233276364
H        11.22737506457699    1.29289064799204    7.54452949991742
C        10.95400881671523    2.15738169636041   10.88840912774478
H        10.42497718128946    1.26199535993258   11.20817324512268
H        10.52956584701858    3.02227972752331   11.42708149741081
H        12.00131844998039    2.06042783839854   11.16857526835513
C         6.95098283156133    5.59095952084961    9.04206912583118
H         7.77875648593574    6.27357587186222    8.82552252268525
C         5.80034847294759    5.92287474933321    8.09225996662311
H         4.89024781901477    5.39580530212235    8.37246126100140
H         6.05887638226327    5.65277907028381    7.07034324712914
H         5.59014302210695    6.99135819214238    8.12458377149766
C         6.52761544655869    5.82451838802552   10.49718452787991
H         5.74900806833105    5.11918310052255   10.78360735579151
H         6.15092283080210    6.83725390304453   10.63283346803802
H         7.39605360232092    5.69037989159070   11.17458529093361
C        11.43781368273996    5.43546763519702   14.18764785167998
H        10.62954005274834    6.13724281297615   14.41704860185626
C        11.88329726929220    5.69818676909702   12.74420862235461
H        12.64445422875137    4.97894689477979   12.44559769424355
H        12.28975977844746    6.70304730281701   12.64045782926470
H        11.01858397307483    5.60668654602528   12.05572114047782
C        12.58767905900229    5.70024632680235   15.15909933277060
H        12.30946737354433    5.40640562938644   16.16929131153577
H        12.83209988624983    6.76193352404835   15.16285149160034
H        13.48360720888730    5.15319790690973   14.87177341148499
C         7.48138288875307    2.35230421800177   13.73662031828929
H         6.96652570886477    3.27063634646170   14.03528766275096
C         6.82417317352341    1.17784262851301   14.46026481797847
H         7.18531260745367    0.22549873925556   14.07674858165794
H         5.74559495818702    1.20963108914646   14.31116353891212
H         7.02638374809519    1.22303062096672   15.52875975950788
C         7.32411561647219    2.20433966737974   12.21967181685024
H         7.77582670585513    3.07473199513541   11.71301468194333
H         6.27414634782169    2.15125799223172   11.93752545647146
H         7.82426729021357    1.30510296434256   11.86595347977037

