81
CSD_code = KAGKEL | q = -1 | S = 0 | Stoichiometry = C18H53MnN3Si6(1-) | MND = 3
C         5.29520749157784    3.82476286413989    7.21023465404652
H         4.88259502173575    2.87927613785713    7.54926524974056
H         4.88070564217475    4.02939562540086    6.22599394574199
H         4.94168088142293    4.59469962641622    7.88670208550074
C         7.85224496580866    5.16487730740498    6.05805246257428
H         8.01064761783316    6.05971606077339    6.65380320132235
H         7.14438162068258    5.41051447006641    5.27059607521409
H         8.79453065887560    4.90664049143142    5.58359410661788
C         7.59974984745486    2.11859246779252    6.25512658141332
H         8.66594509507312    1.92014590093715    6.22151872429111
H         7.23302388470207    2.14043157617700    5.23238230030531
H         7.12790495443147    1.27913286613707    6.75573964533692
C         6.11784078623921    1.95332695336845   10.26020536571911
H         5.40546517185891    2.74614329073503   10.46244549146164
H         6.11556840594850    1.27929791015685   11.11236952773254
H         5.75304542476040    1.39896745940436    9.40134052413476
C         8.90969784602213    1.08512739133576    9.50092102970940
H         8.38608727368099    0.45744199987179    8.78690361601370
H         9.10336532507878    0.48335886698851   10.38495444504299
H         9.86424079140152    1.35091845446783    9.06065130307421
C         8.51151577124058    3.37961017947340   11.56251584632919
H         9.16689759821964    4.22995482006141   11.34749580426663
H         9.08037493152308    2.66153547416512   12.14403951658983
H         7.69712621081578    3.73358363055745   12.18649253992520
C        11.30025621563492    3.72317661225967    7.63041159478551
H        10.21036516664621    3.76702344726387    7.64461597084993
H        11.59742520186464    2.70000702597946    7.42621671828331
H        11.65817908604040    4.33987437720526    6.81249713589947
C        12.22388242624655    2.87385875843565   10.53709438827728
H        12.48311898556357    3.25925505279662   11.51789727690296
H        13.01938656810940    2.21252231836197   10.20660626107601
H        11.31689536077742    2.29017714231931   10.64233589094605
C        13.66992552464967    5.14648538662937    9.07032859371736
H        13.59532505633961    6.05542604701855    8.48301281585790
H        14.34987482409291    4.47354759857955    8.55641130601704
H        14.11406555722927    5.40501944606828   10.02479924303369
C        12.03467082743847    5.55905958101253   12.82752606252529
H        13.09161956747895    5.34144346983719   12.79269315896020
H        11.48950996927213    4.90241580907187   13.48783477813221
C        12.26533707488530    7.85473286903269   10.76525079978600
H        13.31769382380035    7.59703115633463   10.77655431280407
H        12.14632582945745    8.74647724176696   11.37213752106127
H        11.98536957902214    8.09471921267739    9.74532147134846
C         9.48699025861526    7.08588891920922   11.96994906260758
H         8.79174600859913    7.07577010079319   11.11915854148411
H         9.55135898187813    8.10345052252143   12.33939590348251
H         9.06739630734029    6.47922844629944   12.76367507272173
C         7.99873331412889    9.38316282651856    6.53371906603229
H         7.56915042904670    8.66046486652704    5.84862771631398
H         8.67281774300982   10.01971789668661    5.96794791285410
H         7.19043775648047   10.00519778654471    6.90363922079305
C         9.49243207251582    9.96262604597250    9.11538288202091
H         8.65302317003854   10.57835700345351    9.42286160791375
H        10.20312445066362   10.60741873001797    8.60469813686100
H         9.96898536651146    9.58739294183093   10.01424001283527
C        10.45599956166381    7.66378855606704    7.25496091251004
H        10.65900211974747    6.74131984455068    7.81569767698598
H        11.33829476659130    8.29462325487832    7.30716496831288
H        10.30888674496199    7.39222265312182    6.21456753161763
C         6.03141269334650    9.17072858577376   10.22191873960766
H         6.71392831892981    9.28895745149456   11.05744816260654
H         5.01834714702838    9.21385609282540   10.61237701504383
H         6.16663174895358   10.02438417548903    9.56479473426881
C         5.87753931493630    6.10346722556754   10.46140722402488
H         6.42810971625797    5.20576433774856   10.18620818064291
H         4.81715917216780    5.87020046004097   10.41567301053807
H         6.11658978536495    6.34132118639684   11.49427350166845
C         5.10984862213791    7.57744910725877    7.81233155872531
H         5.14013487894063    8.54038243722385    7.31154109526285
H         4.08895373905644    7.41370419097597    8.14759967697941
H         5.34468447457000    6.81694369404571    7.07634726918889
N         7.95488633424255    3.88648405964799    8.72300890725494
N        10.73782265481917    5.43421555892123    9.92362362271841
N         7.98246200182221    7.31224867947462    8.79471987827267
Si        7.21648037295373    3.75810308025518    7.18681005017563
Si        7.87227526414090    2.65619537558854    9.90769766590088
Si       11.95397777361570    4.32423750466179    9.32205894971803
Si       11.21189203092185    6.41864296448530   11.47432531055629
Si        8.89962475527310    8.51939255628232    7.98937808837518
Si        6.35019597300429    7.52590232302161    9.27625298225667
Mn        9.16889431265475    5.69428418011757    9.34472880848993

