91
CSD_code = KAGLEL | q = 0 | S = 0 | Stoichiometry = C36H52N2Ni | MND = 6
Ni        0.02848207376140    4.63809216035708    9.47537827570328
N         0.37535659053018    2.60238168466477    9.36738842360314
N         1.05020125345660    4.55129865830353    7.70540238024418
C         1.16364020912321    2.30087940551331    8.37497378825599
C         1.51914279791221    3.36040810795659    7.46034790797305
C         1.65096538134355    0.90878119049435    8.09288744044618
H         1.23853774231053    0.20689816714014    8.81350861859005
H         2.73897854475524    0.87119679524627    8.13579181480227
H         1.35165291761969    0.59360734092845    7.09365977742178
C         2.39716443968212    3.04399254915215    6.28348431000436
H         2.50401141501188    3.91539824599712    5.64168138271288
H         1.99491851524938    2.22057227459992    5.69552322300649
H         3.38427603701385    2.74128275724369    6.63435002173171
C         0.40271465026421    4.99784704529780   11.51459151700567
H         1.12280043825559    4.22515859120502   11.77186832731365
C         0.88180527073403    6.10650918143548   10.88238023651784
H         1.93974051420143    6.13800063641631   10.63850996387061
C         0.15299600134102    7.42359102765748   10.79568184972673
H        -0.43175085669735    7.56848934220232   11.70453583264650
H         0.88168059089279    8.23689519779405   10.74876798166001
C        -0.75267200676975    7.50367885145676    9.55235001373035
H        -0.14829110791334    7.82332019282933    8.69895441438099
H        -1.52704113102349    8.26472957766277    9.70720457012590
C        -1.42117730155658    6.20067361686220    9.17624787201451
H        -1.66456220470257    6.13352308203592    8.11896676499129
C        -2.03291151050357    5.32536674786546   10.02231277574990
H        -2.70453347497815    4.58703430685281    9.59692514934716
C        -2.12074943713202    5.49095549574540   11.51898364756512
H        -3.02816160806154    5.00038455219370   11.87936873064665
H        -2.20957632715896    6.55144179306069   11.75724491776269
C        -0.91261833387189    4.87217975180102   12.24952480515571
H        -0.80897582420388    5.32730942762948   13.24219513787442
H        -1.10864147652124    3.80640174455163   12.39783291546676
C        -0.11292016620808    1.60899906625054   10.23345790800398
C        -1.43224015423981    1.16451964390399   10.02704695509717
C        -1.95558626201386    0.18894812882597   10.85796963924604
H        -2.96015360885760   -0.16961444222349   10.69611246042159
C        -1.20555915621735   -0.34085276560825   11.89173638455489
H        -1.62369180927786   -1.10522600183226   12.53015864451878
C         0.07952412965953    0.11546547404455   12.10551185858389
H         0.65699794930877   -0.29722148929800   12.91893468101500
C         0.64870656530711    1.08357148945702   11.28949272173466
C        -2.24358160422456    1.73960694626915    8.88911943355621
H        -1.81265785543479    2.72161543215825    8.64755314788096
C        -3.71403037650892    1.93874902475225    9.25716604227470
H        -4.24322179927283    0.98953018821779    9.30155085244438
H        -4.20362084845579    2.55619553947777    8.50582471922883
H        -3.80470039993932    2.43028650675598   10.22331298507793
C        -2.12727667971395    0.85421537390058    7.64609627916482
H        -1.09365244051348    0.78404561408003    7.31888554579632
H        -2.71746843223671    1.27040053892369    6.83203533766611
H        -2.49048554784880   -0.14961396340530    7.85949696638776
C         2.05691561403063    1.55559840158190   11.58120442934081
H         2.29399440109806    2.38214945432079   10.90254866372369
C         2.17621613061286    2.05747449429154   13.02562733011251
H         1.34980668704918    2.71515673481371   13.28409937935963
H         3.10912079391041    2.60231666467770   13.15764569521822
H         2.17163190470391    1.22415000900053   13.72417446002263
C         3.08056192494103    0.43823211397150   11.35885843051168
H         2.88468650277668   -0.39688763288021   12.02764920215338
H         4.08369282552691    0.80916389852971   11.56021351398927
H         3.05012022674440    0.06744151101402   10.33867950522975
C         1.20722944219840    5.58809647364353    6.76899125135594
C         0.22419434726016    5.76222970898608    5.77779929451240
C         0.37378898931932    6.79163649481484    4.86218024575930
H        -0.36633913360021    6.92762874938637    4.08871544549077
C         1.46071699391732    7.64400941851818    4.91471240442739
H         1.56475011062483    8.43574353811854    4.18739600528376
C         2.41090698813225    7.47966207549327    5.90371762512463
H         3.25621452466007    8.15014305902194    5.94268459901324
C         2.30309401462237    6.46022383376353    6.83723951952697
C        -0.97395493274760    4.83984257575548    5.70281790498444
H        -1.06759877713260    4.32869940795315    6.66925205284399
C        -2.27597145765933    5.59992082950325    5.43326297405487
H        -2.33930579656110    5.91266376218261    4.39365977577198
H        -2.35269625098909    6.48585886708569    6.05985170097350
H        -3.12897961727840    4.95654391606525    5.64069253763207
C        -0.77558263708670    3.77922088892305    4.61686715840786
H        -1.65136885575385    3.13593853548081    4.55801154678715
H         0.09021238472106    3.16037259152357    4.83005353529551
H        -0.62839100214249    4.25268649786790    3.64795344312090
C         3.35470402662606    6.29907206339414    7.91116926286789
H         3.01428976247840    5.52190509625130    8.60446678529007
C         3.53504253519715    7.59883234856754    8.69881274196874
H         3.99838279874481    8.36733418494265    8.08475552841726
H         4.17272975871413    7.42902670523758    9.56464671766918
H         2.57270817113106    7.96960714773055    9.04131564308016
C         4.69191676908611    5.86043922552749    7.31005257038703
H         4.58650705272778    4.92468286964424    6.76701353521125
H         5.42958915621932    5.72060847174463    8.09793851028880
H         5.06617933751395    6.61347520874983    6.61988172409208

