43
CSD_code = KAGLOU | q = 0 | S = 0 | Stoichiometry = C16H18N4O4Zn | MND = 6
Zn        4.54051174656887   -0.00001038210582    0.00014210492520
O         5.79835904243052   -1.10125659830787   -0.98342621950273
O         7.60220713460543   -0.73727003920387   -2.23165783081446
N         6.34799083885618    0.83237091494344    0.85999423104911
N         4.96272311622059    1.46090713560962   -1.48788339993698
H         4.17023502952801    1.93080744988335   -1.91569882752075
C         7.21055657113583    0.20946742678686    1.64772500167855
H         6.80555027948565   -0.56919283498547    2.27769402141090
C         8.55974398749932    0.51533142584553    1.68372458648604
H         9.22532496158098   -0.02861544494902    2.33455784859170
C         9.03002011637549    1.51902669700530    0.85337861325355
H        10.07810342186037    1.77658778508774    0.83441220237845
C         8.12761694055670    2.18035435002701    0.03870507780764
H         8.45522111441429    2.96564935012548   -0.62483984877820
C         6.79186129140032    1.80421550854354    0.06860903611988
C         5.75453659529992    2.47011443506727   -0.78988308527696
H         5.07735790522755    3.02604121407401   -0.13372933949851
H         6.23947657430774    3.16382553530777   -1.49210407787002
C         5.74173317939698    0.74763691292538   -2.49772525517926
H         6.47700175780613    1.39149561657784   -2.99397395042151
H         5.06912219853719    0.32971752925887   -3.25025758536564
C         6.47857001699162   -0.47362751317754   -1.85054265681926
O         3.28240190246549    1.10094000260957    0.98389445873375
C         2.60263961022474    0.47363156256342    1.85164243232849
O         1.47838921413939    0.73647501969948    2.23183300374414
C         3.33940097419310   -0.74820388378605    2.49799624475264
N         4.11834165704241   -1.46109685157911    1.48777456626178
N         2.73294839880549   -0.83186111146866   -0.85997366482326
C         1.87032763395379   -0.20875126983237   -1.64747389151304
H         2.27523703586219    0.57019088221541   -2.27717691196398
C         0.52118277615281   -0.51473657500778   -1.68355558700142
H        -0.14440737892401    0.02934082079435   -2.33425660889640
C         0.05097116959911   -1.51872387879045   -0.85350436777573
H        -0.99708351545604   -1.77637152506217   -0.83462183767406
C         0.95340684151011   -2.18020224796600   -0.03899186354042
H         0.62587417611743   -2.96577655612486    0.62428237494357
C         2.28914247720849   -1.80396424320655   -0.06885863855810
C         3.32650001642227   -2.47005750782857    0.78941909932423
H         4.91079611449600   -1.93131723451802    1.91528591874744
H         4.00363601075967   -3.02594821953166    0.13320105328690
H         2.84159972574305   -3.16403652486985    1.49136165033355
H         2.60406924524460   -1.39256002346609    2.99379678614245
H         4.01230209435351   -0.33054710918287    3.25070513643049

