93
CSD_code = KAGMOW | q = 0 | S = 0 | Stoichiometry = C38H50N2NiO2 | MND = 4
Ni        2.86778465432977    2.55710267077574    9.27325897031777
O         4.12138718371773    3.65502030612071    7.74200668066017
O         2.37534431243758    4.41710355574300    6.51171377563930
N         3.47667370960963    1.18141490736701   10.57938487159909
N         2.52702790023729    0.80119209417921    8.20105761353006
C         3.36476338267202   -0.05224308165874   10.20090020055880
C         2.86784688875823   -0.26378182742948    8.85246834592093
C         2.74544866039390    4.40861737446293   10.09161902462984
H         3.83826504088950    4.49181864986389   10.11541240370959
C         2.14245762998156    4.38890637590082    8.83124923594578
H         1.12630288565371    4.70125462943315    8.63943369616816
C         2.09318878104279    4.81676951988260   11.32797485573287
C         0.73348418284385    5.13508335632576   11.40676320458991
H         0.11337545100190    5.07348716175279   10.52572175334498
C         0.16642482033328    5.52218681335136   12.60452795117137
H        -0.88558897489095    5.76723484101552   12.64442005760254
C         0.93479687128548    5.59170260169414   13.75617530173568
H         0.48477890924248    5.88806852066890   14.69246666377046
C         2.28320962371085    5.27841491365315   13.69565549301331
H         2.89102108384489    5.32688244522705   14.58755110406704
C         2.85594862350901    4.90500984757664   12.49717680464154
H         3.90659657677172    4.65868819860941   12.46113614947301
C         2.96948097019156    4.09851522868891    7.68268773180514
C         3.11326036645628    4.16363707757692    5.32963154763556
H         4.15710474656198    4.45533854858225    5.46454672092126
H         2.64865945006464    4.75997918363189    4.54715855927043
H         3.06443387705132    3.10394879180765    5.07251991103672
C         3.79155637053524   -1.22927260250880   11.02819363165140
H         4.20242512508977   -0.89548991882904   11.97826956184742
H         4.55272801291035   -1.80057081297882   10.49719238747167
H         2.95500396045023   -1.89987221587821   11.22118030075923
C         2.72574962516491   -1.65902631875183    8.32195594646479
H         2.26019602130457   -1.64353098512741    7.33928522032658
H         2.10489690939916   -2.24688532382359    8.99729115909751
H         3.69263884438926   -2.15350665200696    8.24492847583394
C         3.91495016835175    1.55615623685008   11.85434314495371
C         5.17036542769263    2.17673503053801   11.95729718223758
C         5.61003034127510    2.58467806720073   13.20630534830027
H         6.58102954312612    3.04231761781169   13.31263470322063
C         4.80883093070754    2.42180714652646   14.32111061674719
H         5.15908474477357    2.74868356538896   15.28921004672723
C         3.55170071865822    1.85723697026276   14.19975866269881
H         2.93488101122252    1.76930155936859   15.07899832941635
C         3.08401435910361    1.40019094834714   12.97772424972665
C         5.98744109400875    2.37464947386655   10.70215233810720
H         5.27810850137307    2.50587288752842    9.86301222270637
C         6.82817966267713    1.12936560142129   10.40836804881063
H         7.52599460410280    0.94252678574825   11.22350025504180
H         7.39479830771217    1.27022212887977    9.49082162860167
H         6.19493862554965    0.25402703758396   10.28945735948937
C         6.88311247279373    3.61060520819754   10.75551036732447
H         6.32663375281949    4.47955057720247   11.10026204586537
H         7.26450555096456    3.82475929516834    9.75974492849387
H         7.73415221904899    3.45695089024727   11.41626902285445
C         1.70170133668957    0.80229583260319   12.81511128630902
H         1.77863816217261   -0.07115661052674   12.16109087611035
C         0.77370220161434    1.80793983972169   12.12868483817232
H        -0.20720271457858    1.36554256766216   11.96789569568005
H         1.18188112645087    2.10445876260090   11.15647409700564
H         0.66283550366284    2.69846401354504   12.74125567708828
C         1.07885242841328    0.33286295530734   14.12862473209322
H         1.75447886674849   -0.32864457329530   14.66695945087964
H         0.16037153457883   -0.21243659933495   13.92010520506538
H         0.82705675988590    1.17775873453555   14.76477790042198
C         2.15412470382787    0.80240009212730    6.85901272353563
C         0.86869956964989    1.27991755828385    6.54283172968509
C         0.47897491712279    1.32690639495112    5.21570941373022
H        -0.50978727182167    1.66945745980626    4.95587155818639
C         1.35005345213247    0.94471474103360    4.21077552142977
H         1.03529306277384    0.98443770144985    3.17831533102620
C         2.63222016442710    0.53495416344119    4.52605611821260
H         3.31385679451728    0.27777367893320    3.72941110646521
C         3.05972263921759    0.44692450534111    5.84373661867850
C        -0.04046858273313    1.70482693278602    7.67012546783681
H         0.60834867210549    2.09388122229971    8.48247265859069
C        -0.80042627387922    0.49655242522406    8.22369245355990
H        -1.42662127679186    0.05687456640789    7.44895409791143
H        -1.43582004729962    0.79980444972240    9.05291355515994
H        -0.10843120310375   -0.26235098597762    8.58148141874513
C        -1.00872257730370    2.81554004023532    7.27242823822295
H        -0.47500040201466    3.62067420851850    6.77215666898724
H        -1.49151817807874    3.21666790974730    8.16171248005989
H        -1.78841004421870    2.44497356471110    6.61021709929565
C         4.49591297147744    0.08212499358864    6.14663302893514
H         4.60826971311729   -0.07700492262742    7.22161810991747
C         5.41450229674877    1.25030294124503    5.77600449321444
H         5.31184707474846    1.50994482001421    4.72420936755639
H         6.45165035219270    0.98193580597784    5.96673829761626
H         5.16677759680480    2.11859484393952    6.38148645990791
C         4.92611690977266   -1.19770890419801    5.42594643156343
H         5.00132540850500   -1.03701933946270    4.35357737912233
H         4.21542414316237   -2.00310418867085    5.60100765116362
H         5.90314569639683   -1.51441650469129    5.78552894959244

