61
CSD_code = KAGPAJ | q = 0 | S = 0 | Stoichiometry = C33H26BCo | MND = 10
Co        2.98870454439614    4.75118337831761    9.33275126189753
C         4.50782787352387    3.96675590078346   10.50145411659403
C         3.32646217992940    3.15813500586590   10.52144469469172
C         2.99927429947299    2.73612505071843    9.18011407904041
C         3.96461296601718    3.25758719150315    8.25941833281048
C         5.14720538392046    4.47479024659983   11.71573271452117
C         5.65989329579922    5.77187776889996   11.76105890605213
C         6.29727613759923    6.24283455154024   12.89206350925128
C         6.45145105754906    5.42262580131685   13.99811005275156
C         5.97250128151688    4.12403477609708   13.95633264477796
C         5.32636815079200    3.65263360745412   12.82937387683337
C         2.61041357448619    2.71072912731704   11.72339957560396
C         2.21325258826824    3.61565841907688   12.70646990547223
C         1.56120096132424    3.17623265424051   13.84212826859399
C         1.29836512569580    1.82730782811643   14.01738174597185
C         1.69728029452280    0.91943271516188   13.05089844602289
C         2.34792328826291    1.35460640965176   11.91153553151765
C         1.92329934781690    1.78730412849870    8.87147447883694
C         0.63475162160595    1.95757035073386    9.37501755325192
C        -0.35277902810727    1.03082440664937    9.10163665535289
C        -0.06946393283388   -0.08212523755165    8.32708465532856
C         1.20989399530254   -0.26382368384670    7.82816083241817
C         2.20036406858055    0.66173521648677    8.09608693271539
C         3.88479963463398    3.02522590821818    6.81675247919862
C         5.06414666076192    2.81915205944847    6.09821891997533
C         5.03171342103624    2.56980177519439    4.73958367259221
C         3.82212295996835    2.53373354456960    4.06557168729015
C         2.64468915569602    2.75327520643132    4.76238838270950
C         2.67357848112316    2.99556749630865    6.12145649139758
C         2.49389323651438    6.60696749267424   10.11700279166329
C         1.29123272136179    5.87777025252561    9.93646624329083
C         1.18934239202627    5.54553331700842    8.57052503211074
C         2.31783611951599    6.08825788754134    7.89885430488055
C         3.11420853068417    6.76447298342267    8.85042995357760
B         5.04571247378002    4.02113590299807    9.05291520707740
H         6.00345585993070    4.56351561807648    8.66164767405263
H         2.80596642028195    7.08540326998994   11.03289060060403
H         0.54481266760477    5.69497460061107   10.69331452815466
H         0.34581446203528    5.06862154028580    8.09651302515179
H         2.47137906351341    6.08769146164952    6.83098774023173
H         3.97031048976049    7.38272773397736    8.63515828316826
H         5.54160582714598    6.41039544797961   10.89792612733081
H         6.67834886515858    7.25405730639186   12.91328596663314
H         6.94837757601447    5.79097336587072   14.88355665961821
H         6.10255098027871    3.47242759796845   14.80853192339810
H         4.97280944719034    2.63246378178976   12.80226094210912
H         2.41602032036883    4.66805072670841   12.57014802400406
H         1.25622211183552    3.88859101149651   14.59502047925176
H         0.78740369393517    1.48502461121002   14.90518220968966
H         1.50182402555471   -0.13457010218885   13.18469668198365
H         2.67037561293861    0.64078095450943   11.16767668715823
H         0.40945416515282    2.82839256434736    9.97409987890014
H        -1.34858831150420    1.17690719343119    9.49459294701198
H        -0.84261053038129   -0.80545270291842    8.11389736004605
H         1.43791385961349   -1.13211041865924    7.22731979010937
H         3.19989865064945    0.51360767090453    7.71413588649285
H         6.00622051595996    2.84430961407758    6.62510470040706
H         5.95418353898217    2.40473804575032    4.20157606646750
H         3.79673547807182    2.34154534909700    3.00295258791974
H         1.69810187602122    2.73657114626988    4.24105871958190
H         1.74975847134208    3.17993317139902    6.65007057445139

