63
CSD_code = KAGPAL | q = 0 | S = 0 | Stoichiometry = C17H34BN10Ta | MND = 6
Ta        1.49123152312033    0.76915581295864   10.22698133546057
B         4.57130664941632    1.36322926642288   12.25004135428216
H         4.67243332357341    0.21514688039049   11.96459548662687
N         3.66968221761375    1.94681481219572    9.96200888927162
N         4.51898990359620    2.21500021474729   10.96060578204225
N         2.08418634839198    1.11544504151273   12.62507570383639
N         3.26482996156373    1.58378040756999   13.04690881039026
N         5.75957644269006    1.78453901898149   13.09104124700726
N         5.91909780435348    3.02816163803802   13.56248506695741
N         0.75696418780650    2.65387083166811   10.38524878186628
N         2.56196346651608   -0.92488223839042   10.33728389682132
N         1.28918237350574    0.61497508177851    8.20156068598021
N        -0.23452610631120   -0.19112427447065   10.74338605606646
C         3.97143007714083    2.77095898761877    8.96141635071843
H         3.43234643176692    2.73264465499703    8.03621183842649
C         5.03684224818569    3.58951514623633    9.31559252694228
H         5.50974508059450    4.34944426681431    8.72798373194980
C         5.35132536499188    3.19731414939208   10.60303695261363
H         6.09724375113486    3.56927140474608   11.27479240804355
C         1.20426537603113    1.34535344664843   13.59684554077166
H         0.18265715509725    1.03784284904313   13.49688693943589
C         1.82355200986489    1.97493495947542   14.66964731266018
H         1.38532097994690    2.28581443237175   15.59575928437726
C         3.13998816603382    2.10718869868185   14.27014143220052
H         3.97334115728210    2.55186753257955   14.77408573422156
C         6.79329037802322    1.00893057524947   13.47615650195564
H         6.84646439082709   -0.02398171695014   13.19607123548007
C         7.65396140437945    1.77755341088828   14.22435230779444
H         8.57385383296975    1.48093844760379   14.68603260132442
C         7.04903832346527    3.03977180473481   14.24317777461097
H         7.38752588863256    3.94073803499662   14.71840592651705
C         1.34885133612091    3.76982930296602   11.08562836643256
H         1.53754187469796    4.61192321390280   10.40244024892511
H         2.29410214743480    3.48865065746196   11.54249070587914
H         0.68206384647450    4.13854275541587   11.88006059848258
C        -0.48735102084379    3.10065403652783    9.79642630179869
H        -1.18108169308263    3.47288637980034   10.56533251280259
H        -0.96214918804821    2.28124145981299    9.26094045012128
H        -0.32096808670809    3.93354967331876    9.09669027994510
C         1.16641203018213   -0.62366325215265    7.46756287892261
H         1.85067737463845   -0.64467647187688    6.60749199953969
H         0.14582076964146   -0.74976114800576    7.07671581653061
H         1.39628510366943   -1.46538718520032    8.11314045471062
C         1.08013335375698    1.71162450006702    7.28581331194569
H         1.80374439578633    1.67937710905871    6.45748480590469
H         1.18440943459314    2.65951521371833    7.80484964874158
H         0.07618891979056    1.66734874668774    6.83608623655691
C         3.70961858233327   -1.22521064310376    9.51154414784767
H         3.67889113671229   -2.26295794619502    9.14993193286606
H         4.64563752275972   -1.10446990736989   10.07379666424876
H         3.73356039975205   -0.55281389402063    8.65641410196731
C         2.53202470642843   -1.83742100674210   11.45780708231938
H         2.49823367002199   -2.88261211358181   11.11889180899083
H         1.65738045476849   -1.63579147587187   12.07276048106313
H         3.42825628448186   -1.72676236787904   12.08342065585519
C        -0.58309786262393   -1.53913818573357   10.35632388852821
H        -1.39319263221791   -1.53753848234235    9.61196415658177
H        -0.93389495415812   -2.12185111566964   11.21984812076185
H         0.27949077273444   -2.04003092519978    9.92820063947020
C        -1.36997811790322    0.40116356116133   11.41019606073796
H        -1.65774215279547   -0.18336928645639   12.29701578458287
H        -2.24851453307706    0.43123359287464   10.74733316778971
H        -1.13676398752353    1.41530162609450   11.71987719249683

