63
CSD_code = KAGXIB | q = 0 | S = 0 | Stoichiometry = C29H30ClNPRh | MND = 6
Rh        2.65347682108400   12.01222017942160    8.45019636330716
P         0.46763369710338   11.75900312001478    9.02195594576831
Cl        3.03085338845323   11.53529907373827   10.63983782611434
N         0.69568129572856   13.50610810042248   11.08955206868132
H         1.68448197930832   13.26925513941619   11.09626942173913
C        -0.20864077748463   12.83191527395561   10.30019131857675
C        -1.49258446042062   13.20543079090022   10.64372824143301
C        -1.36024890891203   14.14074035561014   11.71009512684966
C        -2.28237783080304   14.86440057251655   12.47125622394327
H        -3.34182268044600   14.77021171143973   12.28333287560377
C        -1.81001111220096   15.69688342933740   13.45732029589325
H        -2.50538510222313   16.26603679010220   14.05715645610323
C        -0.43807815342774   15.82688556706928   13.70775957082716
H        -0.11076757603774   16.48985024831211   14.49526026181489
C         0.49414836889804   15.13014371624962   12.97429524648191
H         1.55227400686728   15.22583620127250   13.16525662419904
C         0.02627889079318   14.28652986665084   11.97057662216758
C        -2.79116255292735   12.75008351895253   10.06995903249307
H        -2.66755013189916   11.85079018819823    9.47171923624221
H        -3.22349638300065   13.52518831691554    9.43509424000848
H        -3.49806392251018   12.54486213139928   10.87337843114663
C         0.22460964902949   10.06271667928489    9.64211443964389
C         1.05958087572686    9.08089140757845    9.11521677855679
H         1.81607724324752    9.36865252516765    8.38661451613879
C         0.94508877982087    7.76989939972619    9.53538872580707
H         1.59638335764137    7.01021231127778    9.12795839421455
C         0.00002328598104    7.43422800913467   10.49240576415021
H        -0.08684494540595    6.41117995922155   10.82793955747649
C        -0.81987536621426    8.41143436848376   11.03163168123482
H        -1.54388230620782    8.15004194907115   11.78964242983541
C        -0.71064120983013    9.72569908035067   10.61107900564856
H        -1.33568660710985   10.49146352294489   11.04575176516092
C        -0.79618101556102   11.89568822651857    7.71265814926976
C        -1.16828188352307   13.16995060228081    7.29189996853978
H        -0.77125351198629   14.03265520640742    7.81079060246749
C        -2.05216211469784   13.32828253479415    6.24204708373265
H        -2.34270602226610   14.31947229651521    5.92525912815281
C        -2.56532983973146   12.21530050751501    5.59451139595613
H        -3.25671597969014   12.33811345967288    4.77410477066874
C        -2.19007613532346   10.94555849329133    6.00014074087111
H        -2.58820650862598   10.07711464859434    5.49564630145271
C        -1.30319909407609   10.78372163558141    7.05005833173525
H        -1.01046741460552    9.79140796435698    7.36596203759994
C         2.35902402928070   11.68870688861120    6.37875343102975
H         1.38732614045567   11.22525501741848    6.19652941133548
C         2.37537984712008   13.06278282260626    6.61672361770939
H         1.41062129531311   13.56854810950511    6.63910382603707
C         3.54042590020715   13.95897588371845    6.25251919772766
H         3.15739382119623   14.94213189578584    5.97194319613177
H         4.04588489863134   13.54988759227958    5.37661958918335
C         4.53144930949074   14.13238976794214    7.41943320722633
H         5.53113071972968   14.36095313680866    7.03392153703042
H         4.21652324668436   14.98478766731169    8.02697212035184
C         4.61329894994899   12.92491167589862    8.32197686355863
H         4.91605296531353   13.15559081427854    9.34338751115788
C         4.72568496097581   11.61762947826181    7.89487053369183
H         5.08411712082646   10.88020440125217    8.61373311334253
C         4.86617862763073   11.21784577269684    6.44335705473113
H         5.50166135893692   10.33217772876288    6.37939861161421
H         5.37246986939775   12.01773094152825    5.90171517009603
C         3.50710787932802   10.90032146858369    5.79053357241416
H         3.55594588988973   11.08457595091609    4.71142115898160
H         3.28943107712572    9.83673390619378    5.92277427892654

