58
CSD_code = KAGXUN | q = 0 | S = 0 | Stoichiometry = C28H26ClNPRh | MND = 6
Rh        5.04648446365324   -0.63123345465552    2.74062483889987
P         2.87388496682849   -0.31582513691840    3.30432825794762
Cl        5.57899972663596    1.14252664539200    4.02659738005255
N         2.93063427011239    2.37752389978342    3.00684942542444
H         3.92818324667014    2.30957666375852    3.20128827596854
C         2.09109404180844    1.28934691870075    3.08275764068804
C         0.78191931620404    1.69973967546900    2.92471743226727
C         0.82983556070097    3.11309225554726    2.75550743151543
C        -0.14929945059111    4.09023870775837    2.55370626721599
H        -1.19240605508331    3.81659652055424    2.49277989742760
C         0.24589546439002    5.40056012546208    2.43200470630213
H        -0.49450645995283    6.17147402159253    2.27478468384570
C         1.59608506673526    5.76662381798684    2.50749388812433
H         1.86157729678963    6.80888169615136    2.40761786376890
C         2.58290490329984    4.82921922600285    2.70492013329339
H         3.62463498350148    5.10499325513301    2.76524548005991
C         2.19326797262766    3.49804617871903    2.82741528872319
C        -0.46545599446268    0.88289810242013    2.93049291258424
H        -0.83168224684346    0.73308536194578    1.91364159981668
H        -1.24288011105425    1.39928780631803    3.49219680099180
H        -0.29792964799945   -0.09390105480689    3.37730634756395
C         2.67879785131247   -0.68089151937180    5.07953840265307
C         3.62646076464998   -1.52199201758825    5.65646278048978
H         4.43990048916678   -1.90239820216361    5.03771409690218
C         3.54580184868736   -1.84732195254528    6.99701683851043
H         4.28486783913017   -2.49661334689434    7.44329217322270
C         2.52026589571945   -1.32686409139855    7.77060092990669
H         2.45754389142443   -1.57504665349505    8.81992050498831
C         1.58481732405698   -0.47636696668304    7.20403871820593
H         0.79462452001167   -0.06202183602870    7.81300982248081
C         1.66093133783468   -0.14962220497421    5.86153449995579
H         0.94185882677685    0.52593187850505    5.42240593563444
C         1.69950841904118   -1.45664727519061    2.50577664969218
C         1.35336066179687   -1.20225091669244    1.18111905849300
H         1.71578900239962   -0.29824837879256    0.70881464197884
C         0.54377657802998   -2.08303181561061    0.49078383993776
H         0.27011988747638   -1.87740688574789   -0.53395754762454
C         0.08381303886634   -3.23344616611324    1.11329642580307
H        -0.54774600792829   -3.92368890966113    0.57393339366571
C         0.43779699231720   -3.49914852310547    2.42532540441771
H         0.08311570632157   -4.39772723375938    2.90904935764440
C         1.24878368943515   -2.61853996548881    3.12021840214003
H         1.52520642741918   -2.82558959432559    4.14519436163261
C         7.00514875315857   -1.53695251306706    2.70664738258445
H         7.59989673205519   -1.37946999923269    3.59785618031132
C         6.89415210944065   -0.69510839071658    1.62192405520968
H         7.37653263232798    0.26414767304999    1.48595879852608
C         6.32410465254642   -1.53560362346597    0.47977937773685
H         6.43160747062435   -1.13251163365296   -0.52365688398820
C         6.50487788775559   -2.90644905198053    2.24394316552770
H         6.78046746772824   -3.76071593167227    2.85736861241352
C         4.89758006876177   -1.77364552467385    0.97839343107887
H         4.02702482280012   -1.65814126783726    0.34693741858423
C         5.00867023479714   -2.62933009402016    2.07553675444347
H         4.24004564369375   -3.29812800606126    2.44150847441166
C         6.96862707963180   -2.89758813338203    0.77940756591052
H         8.05402628943298   -2.89083262637419    0.67354027074503
H         6.54270185732902   -3.71088953210872    0.19139015329396

