51
CSD_code = KAGYEX | q = 0 | S = 0 | Stoichiometry = C17H24CoN5O4 | MND = 6
Co        6.40915425415516    8.25337826050992    3.35927699033169
O         7.29801533579327   10.24516633140439    5.24912958949248
O         4.94495373117004    8.67431659740888    0.99582218058331
O         5.54062530988804    6.26771320334527    1.44226622467202
O         7.95228070390495    7.84320670430229    5.66433791077576
N         8.17460500979655    8.52845224032517    2.25973221777004
N         5.44756156465024    9.21654593524971    2.05428020626444
N         6.19550423352039    6.54325035409467    2.59891972401058
N         7.35773873528740    7.28745883560972    4.66058347203298
N         6.60072633076587    9.95970729395812    4.11746722869429
C         9.31467222763794    8.85168759510733    2.86655020439024
C        10.50603722547268    9.02734333104859    2.18385079291914
C        10.52206617262423    8.86046848173982    0.80872742389807
C         9.33607329707809    8.52485234853444    0.17636833268369
C         8.19053653283918    8.37005317416379    0.93805525935706
C         4.72596253208790    7.94678250958216    4.40199456918965
C         4.68586058404814    8.49829373005777    5.82852170000041
C         3.46545770514163    8.04362726083923    6.46812974532534
C         2.44873440405095    7.64554923090101    6.95862173381500
C         7.43597712925646    6.00634371351234    4.44405169770174
C         8.17274371192466    5.06561883142523    5.34317111639930
C         6.75803665140101    5.57947539798864    3.25016959600227
C         6.72707397702184    4.15142863854334    2.81790692227339
C         6.04484264872754   10.92463787096242    3.46170411035850
C         6.09691325947260   12.35565797208696    3.88242761055596
C         5.37398289721113   10.49951159022606    2.26410522053665
C         4.67680332530269   11.44572069180034    1.33950942281951
H         9.28564037371403    8.97097891477651    3.94098345538308
H        11.40089737969191    9.28906230839777    2.72580926013589
H        11.43410495732195    8.98865597412979    0.24514700124715
H         9.29261315827226    8.38388120567978   -0.89190852551990
H         7.25425492234855    8.11599260967235    0.46018187962376
H         3.88862668251565    8.37371844824021    3.84266222897948
H         4.55786737466407    6.86698661177779    4.46026270879610
H         5.53388491688719    8.14169388537169    6.41866152206264
H         4.69276404818921    9.59097859223688    5.83824019419800
H         1.56323831229910    7.30843846412998    7.40867589851062
H         8.60506042878752    5.63679854906043    6.16193648451609
H         7.49685503955920    4.31531866503414    5.75076522936387
H         8.96886417674610    4.55432854719582    4.80349746744149
H         6.13790810231256    4.05815956062093    1.90956814612457
H         7.73745142348304    3.79071942215237    2.63091541762747
H         6.28652224988968    3.53443886959117    3.59901211824767
H         6.61106617501711   12.95221938479448    3.13030568251170
H         5.08808446482832   12.74916517176175    3.99399363546883
H         6.62455417532558   12.44000289750718    4.82881543088481
H         4.25876543455281   10.87524204134486    0.51291435094700
H         3.87183108247886   11.96599861976858    1.85641191933238
H         5.37015011528266   12.18870996997009    0.94719449530830
H         5.17562380127620    7.19585834926409    1.13617451579110
H         7.61413171432639    9.31180481279360    5.58659828016374

