125
CSD_code = KAHBAX | q = 0 | S = 0 | Stoichiometry = C50H68I2N4Pd | MND = 4
Pd       -0.00044056123895   -1.22963284895473   -0.13396303094637
I         2.61266313444507   -0.87224465792522   -0.06654981551505
I        -2.61369046888301   -1.58923166419174   -0.20599725125749
N         0.09174078977096    1.44401860139576    1.19913816708355
C        -0.23020095795454    0.15781943260009    1.31195623674017
N        -0.72691408644615   -0.07260934214355    2.52460236017041
C        -0.90340732270807    1.16332909041095    3.29084307400045
C        -0.05543006963847    2.16134924518635    2.46792016270083
C        -2.39654742584803    1.58616205501672    3.44597821319155
C         1.30710529733455    2.52637511285897    3.13325738147718
C        -3.21408948908914    0.48131975541170    4.12476463274738
C        -2.46278289278483    2.82951893741894    4.33903982141970
C        -3.04790411455018    1.88902083054153    2.09613426328181
C         1.03057981824211    3.34786791391687    4.39685463422436
C         2.16337914963756    3.38678918061181    2.19717630997728
C         2.11681747673093    1.28164975482940    3.49814488580023
C        -0.79043827787747   -1.40767137208919    3.08905300400323
C         0.27102919542845    2.08156092813843   -0.09180402682663
C         0.32515850380424   -1.65641857201554    4.07076113929683
C         0.15590838458635   -1.41412073098378    5.42789326738673
C         1.20902620808460   -1.59731130553942    6.30724636615265
C         2.43936963723556   -2.02619673570452    5.83873437368008
C         2.61216236447589   -2.28369251614601    4.48934371031336
C         1.55810660269849   -2.10120711742544    3.61426747486356
C        -0.93538559539593    2.89005293452646   -0.49345947189977
C        -1.99577032230290    2.27042861379313   -1.14016296910949
C        -3.13433299260082    2.98044570544224   -1.47110500541887
C        -3.22042613984133    4.32724581340500   -1.16156203530234
C        -2.16216837666865    4.95898203148596   -0.53063962816393
C        -1.02422520449872    4.24431927732678   -0.19843143491472
N         0.87407389304143   -3.77042100075795   -1.44340422740447
C         0.22806529831772   -2.61536060855515   -1.58063046204785
N        -0.24474286115364   -2.51326048493844   -2.82012616537305
C        -0.04590384337676   -3.74531337797671   -3.58725387741644
C         0.99282286165024   -4.48840139154698   -2.71486277906487
C        -1.36263090407558   -4.54891876220739   -3.81750620515018
C         2.43712029412421   -4.46967889845537   -3.30317523579467
C        -2.41129322332078   -3.69308786366869   -4.53680444537719
C        -1.97557001468077   -5.03278275911064   -2.50282669430670
C        -1.05010786681600   -5.75295418797830   -4.71218071825758
C         2.45962182851006   -5.32993858344748   -4.57100609797339
C         3.44220919220909   -5.07117883212851   -2.31440736187267
C         2.90083180658454   -3.05154461870865   -3.63782260404124
C        -0.63083045171826   -1.23748025131986   -3.39343723344832
C         1.14691069960900   -4.34874536130818   -0.14105268098642
C         0.42349627279438   -0.69652096941406   -4.32410836833065
C         1.47172072862657    0.05719298452106   -3.81456594982937
C         2.47918258184624    0.51718906612220   -4.64144873849512
C         2.44405365157655    0.22977195427397   -5.99531704056802
C         1.39438469320636   -0.50741656967180   -6.51698600896325
C         0.38773281954619   -0.96764132556585   -5.68597034794591
C         0.18068254522961   -5.45397415184531    0.19847746898487
C         0.46814361948043   -6.77860370452557   -0.10468551718698
C        -0.45404438225912   -7.77414385415550    0.16810674204311
C        -1.67027883450548   -7.45535455821678    0.74798852602422
C        -1.95892189535349   -6.13906103413886    1.06585369096074
C        -1.03521364004738   -5.14771774865787    0.79364225430423
H        -0.49379953758345    1.01966399469401    4.29384643581581
H        -0.59569010355729    3.09400881555195    2.28694311681404
H        -4.17681755977385    0.88300488398271    4.43410964698948
H        -2.71118148662447    0.10174137578611    5.01185111685257
H        -3.41160808433119   -0.33508692186368    3.43564932732296
H        -3.49675765156289    3.15110158200570    4.43919469509182
H        -2.07706832015037    2.61211738391192    5.33323756871988
H        -1.89562157913779    3.65753140487339    3.92357518749160
H        -4.11941990043336    2.01914618922274    2.22678642951769
H        -2.65816252082240    2.79873640430074    1.64791560205559
H        -2.89978029652325    1.06787551450211    1.40055355241828
H         1.97090418013248    3.58994259659105    4.88654500947165
H         0.52696198710891    4.28030103057007    4.14900819191228
H         0.41585364469009    2.80344689732442    5.10792750803063
H         2.98667369041531    3.82248162166986    2.75953330133989
H         1.58574758931039    4.20229418097556    1.76680627118254
H         2.59751721494757    2.78444306103889    1.40402977668838
H         3.11894851535196    1.57248007658404    3.80367205542818
H         1.66983995414655    0.72849331906298    4.31949536751002
H         2.21427247679423    0.61731937545442    2.64417807321369
H        -1.75856553239226   -1.57848340330072    3.56164353233023
H        -0.68194335459235   -2.11092104556811    2.24345837156970
H         1.16456984041452    2.70720333863000   -0.08954594150952
H         0.41261209491210    1.26776991420847   -0.82609319561104
H        -0.80535834043895   -1.08892051902758    5.80175550540917
H         1.06785719374102   -1.40357895031016    7.36074164188499
H         3.26048460537624   -2.16380509069129    6.52635400162693
H         3.56698732655352   -2.62219818144452    4.11684119248430
H         1.69421601341276   -2.30059172586094    2.55956584192545
H        -1.92986288733267    1.21776717107009   -1.38114436690435
H        -3.95352778438370    2.48151091035604   -1.96608328064780
H        -4.10883642225037    4.88596516907898   -1.41569076947408
H        -2.22173813806381    6.01173690017821   -0.29520153713571
H        -0.19729084617900    4.74613267464042    0.28523488792780
H         0.36208055271836   -3.48998964760371   -4.56844995688869
H         0.71273111007914   -5.53326256154084   -2.55935207842120
H        -3.21681161639996   -4.33238633435550   -4.89222755168733
H        -1.98600995167079   -3.18305724175021   -5.39869123713348
H        -2.85109162791803   -2.96677135305017   -3.85896390885775
H        -2.96604225800792   -5.44103127757269   -2.68851328068479
H        -1.38076151799019   -5.81256615793116   -2.03544014846940
H        -2.08600538420203   -4.21175892551497   -1.80019157182136
H        -1.95370248950542   -6.33898382539735   -4.86270420856169
H        -0.69035822185453   -5.42740664397195   -5.68642013731307
H        -0.30151001541734   -6.40334727049374   -4.26882914607411
H         3.45447776659507   -5.30613528478272   -5.00949326544123
H         2.21518411813255   -6.36502266038928   -4.33997612105357
H         1.75804843918268   -4.96929493603384   -5.31774745158372
H         4.38253012275002   -5.26259593705648   -2.82727571126760
H         3.08555148075614   -6.01596378630809   -1.90927400771485
H         3.65198441345155   -4.37864770057651   -1.50395987909251
H         3.95897575243434   -3.06126535585220   -3.88775085522639
H         2.36604276774520   -2.63517902705028   -4.48691842376541
H         2.77117042945632   -2.38927439314046   -2.78658827231815
H        -1.58750897341810   -1.32296618296682   -3.91074263081745
H        -0.74956722404022   -0.53690246393718   -2.54666118562617
H         2.17396586003104   -4.71277425075824   -0.09064114625599
H         1.02552058086563   -3.53336134423998    0.59516925612029
H         1.50127966321929    0.28046377382202   -2.75642593538072
H         3.29147755373996    1.09507981965406   -4.22761987290705
H         3.23050365172172    0.58336414801208   -6.64527931925263
H         1.35879210927708   -0.72609339410574   -7.57444433216057
H        -0.43465772965787   -1.53366359753574   -6.10179353193088
H         1.42030787516680   -7.03600598217089   -0.54820649254780
H        -0.22162248611253   -8.80120171746159   -0.07374513002279
H        -2.38950731101914   -8.23347745979258    0.95592698904652
H        -2.90314446658138   -5.88268341738317    1.52167092715845
H        -1.26214608792220   -4.11913901671549    1.04084076854617

