251
CSD_code = KAHCIH | q = 0 | S = 0 | Stoichiometry = C129H104N4O13Zn | MND = 5
Zn       33.18716165411367    1.75038846499083   20.52542856828902
O        36.37004443577619   -0.47592722205927   17.10092261045040
O        30.73287576368360    5.67777850373818   18.25539977160087
O        35.62863406688041    2.65090603046885   24.79844372594859
C        32.98800794772722    3.62613369751048   22.89857376716760
O        31.09445919424117   -2.87578171724688   20.49340556393107
N        33.46123222347302    2.79297573271566   18.81916223759525
N        33.51357106769968    0.03046520770138   19.51510614183571
C        33.35388109791486    4.13573364281714   18.68270474468385
C        33.81340852266301   -0.09114388122678   18.20098562595895
C        32.70993943365183    6.43483302449285   19.25684138031182
C        34.21000189372649    3.40367706116734   16.74775233294292
H        34.65818205338000    3.31174789000288   15.77678915201189
O        30.94260294327486    1.53027147760069   20.31433462509728
H        30.63599584467246    0.61505220071364   20.30939937598579
C        35.80248202956327   -0.14852542746661   15.91277824192601
C        31.56357968668808    6.72861759714369   18.49803439825168
C        33.94394964496989    2.31212538560600   17.64582660331482
C        34.09490038694448    0.96226645286346   17.32868468198650
C        32.75433300778985    5.00285589269353   23.24140772674947
H        32.69207444565307    5.38388773243415   24.24348388906038
C        33.21052062058879   -0.63389319841608   22.40245829468996
C        37.34786446898811   -1.48873280533055   17.13020303266228
H        38.32271440470296   -1.09078277001498   16.80166995790219
H        37.06740836839459   -2.29139333677437   16.43560922831147
C        36.99700280703539    2.65053357027924   25.16684764766476
H        37.21975514101206    1.76715095647931   25.78177137727355
H        37.22744383977636    3.55465988624914   25.74374485426128
O        38.27253376549556   -6.78816537140015   14.09208404346117
C        33.09446118791193   -2.99424322530727   21.68097610118340
O        31.71826078857679    3.38177787398086   12.28076481170442
C        33.22786533951970    1.24492521121280   23.50680418643363
C        33.80923254306148    4.53362840794908   17.37897835629045
H        33.84861775882352    5.54573504585401   17.02139908863110
C        33.36289971571644    2.97171549521700   25.24495614742646
C        33.58266999339047    7.45455916133715   19.59673393094699
H        34.45480543251790    7.21291988094127   20.18739366666156
C        31.76953882244247   -5.00299101164315   21.50429664808511
H        30.90240196569113   -5.54094813086637   21.15226523126181
C        34.68529495164610    2.96728266346282   25.72375865616597
C        33.22253491300305    0.19226723048936   24.48615335920785
H        33.22174699892146    0.33949482319620   25.54975750373627
C        31.93767841903199   -3.65416746106304   21.22529663133989
C        34.61744202229671    0.60799444267779   15.99370057746787
C        32.62972970638483    5.67563910081184   22.07261825985168
H        32.44452359027815    6.72248595652041   21.91752170443109
C        33.40979171537077   -1.22557389620803   20.01461443289882
C        32.83076591657122    4.71472138917199   21.02099103411165
O        35.60592335247930    8.58815250694596   25.11560586030290
C        31.34692809962642    8.03235616676682   18.07082965850143
H        30.48994954664839    8.27996617206419   17.46426378227837
C        37.63250017173785   -3.46883053126001   18.60420866417147
C        28.57286902897165    4.74418129341039   17.80835486755010
C        37.15636073632242    0.13262335555161   19.73774628850050
C        33.87484378754675    3.61197275740095   27.89170883275539
H        34.07946238555080    3.85379488907248   28.92433080476989
C        32.23804556215877    9.03657861856486   18.41543419780557
H        32.05265082740555   10.04482379542150   18.07560185342168
C        33.18781293207901   -0.97454693026514   23.79897593041509
H        33.15929984405724   -1.97431287735575   24.18560796485901
C        36.31986813100078    0.66358969982195   20.72219472081774
H        35.83111348178593    0.00360340341799   21.42080998852914
C        29.49583507937523    5.92012549122316   17.60667832279273
H        29.66593412629071    6.09185959313788   16.53451238858200
H        29.01907040201688    6.80881093922331   18.04178643841489
C        33.98224048301506    0.99448301978752   14.82531297127004
H        33.06877390069705    1.56546576172467   14.89495189089659
C        36.83740680276860   -5.32324311088042   17.15186380661387
H        35.99375001279769   -5.43863897946441   17.81687898731139
C        37.46566299351226   -2.08171122176058   18.51750351531924
C        33.60133574540636   -2.18752508110868   18.96274425081929
H        33.57145380211598   -3.25298384892415   19.08428052961733
C        32.94959317092081    5.03420128302359   19.67098453433335
C        36.31493320998842   -0.48395395639731   14.66597115288373
H        37.23135619975361   -1.04826401474546   14.58216547558910
C        38.06541221414271    3.86612406827306   23.26578995602298
C        38.04247321111342   -6.01991761508830   15.19448317280937
C        33.35106920593095    8.75675499678792   19.18471719214001
H        34.03952826499386    9.54355462381508   19.45490662304446
C        32.57727632853651    3.63604587802862   27.41862041401011
H        31.76231747594290    3.89911206012762   28.07609844568445
C        33.84189306591031   -1.48255216657464   17.83452994676157
H        34.01609283974422   -1.86408358408636   16.84595859484992
C        30.67152953460350    3.80814649451717   15.71648411648909
H        31.14858405309459    3.97500551256826   16.66965054982612
C        33.16579078017082    2.60092216432312   23.82347126843198
C        34.92857248221860    3.27718110334335   27.05468616969170
H        35.93102052642771    3.25884449369861   27.45321371710755
O        36.36737831415352    4.21379480342722   20.05829924346415
O        28.30012030384777    8.60600635597315   22.99721434680649
C        33.24324752597126   -1.55841907478190   21.35800583078501
C        28.44261316866677    3.73187811857305   16.85230496156173
C        29.73087165314244   -3.21524477167047   20.29164922512732
H        29.48125503952546   -4.16825922924546   20.76048139506308
H        29.56299265679622   -3.29238454631649   19.21110550779280
C        27.92796618183749    5.73940817084831   20.01142962739192
C        32.32640960560303    3.31023469549530   26.09425804577184
H        31.31606136573198    3.30976993448649   25.71128326527129
C        33.85955914014319   -5.03877914497200   22.69252117162665
H        34.60711069713811   -5.57544671932532   23.25808302179345
C        37.67927217525564   -4.09986791565152   19.84152263562493
H        37.79594648489338   -5.17320628393880   19.87995189779369
C        37.42337685746085    5.11191830066549   23.74342815899336
C        37.37011639416986   -1.32496219034244   19.69338069467675
C        37.82748474945987    2.64895859985775   23.90718813611555
C        26.64247544045609    2.76027481896207   18.13674585945745
H        25.88167152966597    2.00114140569828   18.24754093137495
C        26.93836082150828    6.68954190884409   20.25052192295506
H        26.04708455285631    6.69367305690141   19.63935288389086
C        36.67696874979674    2.89590429551307   19.90718126820865
O        30.91815767086036   -6.22033630983201   25.36617195307826
C        34.04395510661941   -3.69656445767323   22.40245966161419
H        34.93782944928154   -3.18541583686231   22.72815436867301
C        28.23937353212454    7.63468929907516   22.04130599214785
C        36.96221025457672   -6.16224125625037   16.05738863003721
H        36.21372392851900   -6.92137423067544   15.89208465176137
C        37.76667626964515   -4.32350666872084   17.40465183011930
C        38.88117575262629    3.91492941516917   22.14404502366766
H        39.06145309784998    4.86822179535959   21.66876303146599
C        29.28577728045726    3.66296828171361   15.64764507946379
C        38.98711129796354   -5.02366342618431   15.44848532950437
H        39.82465345877540   -4.92973046107216   14.77526582610432
C        36.28014989035574    5.57308098378767   23.10782222960975
H        35.87805548712947    5.02090018616713   22.27205620944643
C        38.36998920458878    1.47453178026622   23.37938132163857
C        31.44263521626960    3.72430964244927   14.57809839004956
H        32.51152407271597    3.85696145079923   14.62693314749003
C        27.76485174842461    4.72447881330231   18.94853772716741
C        36.09604539421552    2.01857612048203   20.82348898268026
H        35.51265846962566    2.42554804475729   21.63495288356149
C        30.85846845799031    3.46928227511939   13.33633791959825
C        38.08521726061545    0.14369646273898   23.94149395836409
C        28.39317057723681   -1.07185132874429   20.09702269736601
C        28.88154534229190   -2.11633266487699   20.88446303027749
C        35.65217410251883    6.73188432793002   23.52986515270684
H        34.76640734212868    7.05902108501709   23.01069891263679
C        36.51402786261773   -1.53966100978061   24.64849017663024
H        35.50260849195590   -1.85515694548856   24.84701306621389
C        37.45572015728093   -1.98646751811382   20.92118686828248
H        37.42251233232283   -1.40653503462012   21.82952743289878
C        37.53542492684242    2.38551166230778   18.94167088177930
H        38.02827830484789    3.03655769518843   18.23586931855228
C        36.15720019625043    7.44478009319904   24.60973915966079
C        38.84816908276007   -4.18944711075848   16.53547488526719
H        39.59213809971037   -3.43032236446638   16.72826344820178
C        32.72342641786924   -5.68463124096370   22.24312815141654
H        32.57089528176869   -6.73210382257594   22.45815824816061
O        29.25455190105329   -0.33713341482589   14.58223951411123
C        39.19251099702831    1.54883229202747   22.25672830612622
H        39.60399193200721    0.63865936510846   21.84592591980526
C        34.49168005989511    0.64899231349094   13.58403167724101
H        33.97835524892714    0.95977796097464   12.68689147988922
C        26.79563191122225    3.74041734477784   19.10024231765708
H        26.16875971420080    3.75108097529712   19.98021008923879
C        29.19712657515684   -3.18163827468114   23.12037318428978
C        28.62724398428586   -2.12188907058802   22.25864263438517
C        27.46997777276624    2.74987449303187   17.03172451425385
H        27.37680766678776    1.96473625424003   16.29752649346517
C        30.39089397680925   -5.17176794186910   24.67460841738653
C        35.65851410436114   -0.08669320557751   13.51033433230793
H        36.07161605134475   -0.35808734275639   12.54995138205648
C        37.78367524603723    1.02610866483476   18.87871028801440
H        38.49926922706481    0.67074543111537   18.15394707307932
C        28.71073747065322    3.41639740759678   14.40556165015562
H        27.63820800805276    3.31567250071780   14.32668155539337
C        27.60834915845927   -0.83674010902859   17.75495495725365
H        26.59439535117381   -0.90351572264466   18.12149369712715
C        39.11306212658662   -0.76761895990801   24.15595395720019
H        40.13544243046177   -0.46699193762162   23.97808979722933
C        28.66894979407302   -0.95872897471820   18.65098327062421
C        27.09318031788476    7.63142258253118   21.24496112699167
H        26.33678190282055    8.37793417222188   21.42961758921594
C        29.14385216603658   -0.55225468070670   15.92258771220549
C        39.45715045680443    2.75956136054782   21.64970711476532
H        40.09891008829495    2.79870420050027   20.78174651191058
C        27.87303888578648   -1.10629079277775   22.83078054781718
H        27.69079310518270   -1.12270464899509   23.89521663716023
C        36.77576632089343   -0.26418107862210   24.19949033835455
H        35.95836977453706    0.41768331139627   24.02269720866059
C        37.59663545295206   -3.35550715652140   21.00123824096406
H        37.64488264033555   -3.83873835788823   21.96596526052284
C        29.43835713955726    8.65953195805336   23.82134502297327
H        29.55543433983626    7.74228489925413   24.40760062533862
H        29.27531669080166    9.49921076566942   24.49531505464419
H        30.34886708657220    8.83531516239470   23.23847106006142
C        27.83921575305014   -0.65487470669700   16.41007569396131
H        27.02280619529834   -0.58201786770299   15.70812817318661
C        27.61495123377687   -0.07754530445834   20.68795640251535
H        27.23371364392461    0.72317119470822   20.07079658966477
C        28.66793301728220   -4.46890967955443   23.14681029317551
H        27.78848855560041   -4.69728668192680   22.56031958686199
O        37.17472827761232   -3.69778760855968   25.26554565518687
C        29.96617179145684   -0.89915613052961   18.15428519799237
H        30.80722472765942   -1.02029110870575   18.82180156775576
C        29.25463430733121   -5.45196319857196   23.91425358147336
H        28.85671182796238   -6.45445149748024   23.93613368833603
C        37.54995353697106   -2.45329117679771   24.84601193164129
C        30.20827260576742   -0.68167432812388   16.80785279235223
H        31.23102846531025   -0.61503408934449   16.47084922903853
C        29.47881569541166    3.31781240112465   13.25905007050152
H        28.98984179467726    3.12680674462995   12.31676091951132
C        30.89823872806558   -3.87848111365423   24.68111113129024
H        31.76013234012575   -3.62433657283628   25.27700649807801
C        37.31399760953677    6.99134758544352   25.24373954510294
H        37.70329332958834    7.56042545423483   26.07348179183670
C        37.36716831013457   -7.82165487366017   13.79293343350866
H        37.31941633350043   -8.56089827364839   14.59932357717968
H        37.75049440341930   -8.29779520495313   12.89180570396949
H        36.36244078522372   -7.43310676336689   13.59640589735417
C        37.93873239582965    5.84019881804762   24.81182139257630
H        38.84041688621826    5.50221804609839   25.30416423601379
C        38.85858685382721   -2.05232607819916   24.60439336952057
H        39.68680248507692   -2.72672357280285   24.75664655496461
C        30.53630763243812   -0.13205520467962   14.04080659731847
H        31.01251596687511    0.74998542335465   14.47728301793752
H        30.38283390924825    0.03073937947095   12.97534293730565
H        31.18383704130564   -1.00306726992941   14.18183745704277
C        31.18871969333957    3.13252387561358   11.00305992362082
H        30.66736758006635    2.17012001980640   10.96266438725987
H        32.04343083819401    3.10617315264628   10.32865462878557
H        30.50547782605106    3.92763297362400   10.68701933712526
C        30.30122886518059   -2.89749218103619   23.90942692232913
H        30.71012121776933   -1.89763565602654   23.90561704749607
C        27.35659035071052   -0.09256302807879   22.04434022712156
H        26.76228018937404    0.69090848665165   22.49058786146176
C        34.41845826332163    9.06547689442129   24.53460179811746
H        34.56535273345383    9.34327848075607   23.48527823559004
H        34.14556797504739    9.95198438615343   25.10543662919261
H        33.61191443445045    8.32775486130552   24.60329761424040
C        38.17350277517931   -4.66624791833406   25.46476629697030
H        38.72532707191520   -4.87340439064987   24.54147733351509
H        37.65232100570518   -5.56866609034608   25.78148568563925
H        38.87822094428181   -4.36503782746953   26.24687676169267
C        32.10942930688486   -6.01208435006322   26.08580970437788
H        32.91311431502325   -5.65860974905550   25.43217054280736
H        32.37715289147944   -6.98331347955950   26.49933775408067
H        31.96571574235864   -5.29995572111569   26.90511140117048
C        36.87978794710985    5.13135036785163   19.12579918644736
H        37.97443265936569    5.16361687316907   19.15162755150411
H        36.48712872403552    6.10418827474388   19.41745974897680
H        36.54347538769569    4.89919431667830   18.11021508122126
N        33.22122764594755    0.71515445677531   22.25959720843063
N        33.01194464638318    3.48244162603353   21.55217243819263
C        29.21892476571235    6.67371272190369   21.82189532732728
H        30.10718256797817    6.62907796579276   22.43050041979394
C        29.06242208101728    5.74154005245866   20.81173893649026
H        29.83163489722092    5.00082754540982   20.65619386528457
C        30.26618319692603    2.23517055753530   19.29207844504989
H        30.66068421777399    3.24800411487124   19.28325091108060
H        29.19209098797630    2.26436361284351   19.49352641596112
H        30.43280218427015    1.78370010154638   18.31064591728737

