49
CSD_code = KAHDON | q = 0 | S = 0 | Stoichiometry = C20H18Cl2N6O2Zn | MND = 4
Zn       -3.18235203412654   -1.97263437862586    4.15634195761346
Cl       -1.59160078125242   -2.91079458922127    2.95156581634135
O         1.12107577298905    1.38545486299686    5.05446326149849
N        -0.16096091881466   -0.45129701762455    6.50036860541664
N        -1.12416029795607   -0.24214467280863    7.40287957773973
N        -2.01796231562098   -0.86963953607329    5.47907999060412
C         3.70428701898029    2.35582180531995    5.44922476115452
H         3.07523517567073    2.80367786682023    4.69478563094159
C         4.99634312772624    2.79681865677503    5.65330762283498
H         5.39266275918286    3.60253288124187    5.05435332028494
C         5.78252816744785    2.20138953536582    6.62714902258909
H         6.79404185645594    2.54210379979698    6.78946816819056
C         5.27052759179978    1.16581126022114    7.39394133680232
H         5.88491588032131    0.70215248880425    8.15103058404936
C         3.97696572864895    0.72080746344943    7.19596100296997
H         3.60312145215300   -0.08768091778252    7.80405139085347
C         3.17730822534202    1.31376162453067    6.21730594544719
C         1.79085536899595    0.89785842545158    5.93190970602661
C         1.21670423705979   -0.22402061708242    6.81313479798639
H         1.79617753637950   -1.13767489649486    6.64576024702965
H         1.26367810073554    0.05649929486460    7.86757843969865
C        -2.23048014375237   -0.50668357294995    6.76363883763175
H        -3.20349674042871   -0.45130767424846    7.20619473634113
C        -0.70499372217187   -0.81906991121669    5.34145391984096
H        -0.17077311794525   -1.05776189273619    4.44432083475268
Cl       -4.79065792452638   -2.88201410607843    5.35749922159960
N        -4.32013603473202   -0.85446920885083    2.82297070960231
C        -4.08205423198008   -0.48875912427845    1.54367694083157
N        -5.17505285996820   -0.21795401863961    0.88449412789919
N        -6.15596365927887   -0.42653921181378    1.76783393820054
C        -7.52687637720001   -0.19674590917731    1.42811891912239
C        -8.12137778121408    0.91600631590578    2.30710121201141
O        -7.46824610742368    1.40287726235150    3.19735979225445
C        -9.50757574996003    1.32159920355260    2.00572301302208
C       -10.06217481395680    2.33754565662158    2.78916488869175
H        -9.45275929756940    2.77490031763183    3.56557174342815
C       -11.35620120854939    2.76652836499660    2.57243237985318
H       -11.77404337145011    3.55187406118383    3.18367599123616
C       -12.11655714774308    2.18551408986245    1.56979466120224
H       -13.12960799971791    2.51671008379444    1.39759650822305
C       -11.57665266286781    1.17667743113556    0.78669892993970
H       -12.17075915433961    0.72449808367496    0.00680627166175
C       -10.28121796085410    0.74333412109395    0.99776875967648
H        -9.88531536079787   -0.04397354305129    0.37601942507698
H        -8.10926904749044   -1.11243584279836    1.57295469291863
H        -7.55084116504267    0.09449833024952    0.37577772639650
C        -5.63531036591602   -0.79996563785159    2.93571441458116
H        -6.18722366680130   -1.03861622434789    3.82211083357028
H        -3.10067397846193   -0.43557078392705    1.11976538437961

