69
CSD_code = KAHJUB | q = 0 | S = 0 | Stoichiometry = C26H36HgN2O2Se2 | MND = 4
Hg       -1.15887975341749    6.73149393810208    6.95869639401204
Se        0.14584094003181    5.03982606624892    8.24906918344961
O        -0.58667639214280    8.36618471338440    8.79183534185023
N         1.54736100172146    8.34039265298871    9.55334782492478
C        -0.12389279840004    6.85235179321530   10.52256869854720
C         0.27609293146666    7.92316416278547    9.55584613902020
C        -0.28810483269328    5.54555462062533   10.06298343719189
C         1.98670240764267    9.35491874090724    8.58896717305616
H         3.05210943508955    9.50975205953625    8.77836122192314
C         2.55323297220764    7.72403171941668   10.41202134151162
H         2.02019555853565    7.01896940643795   11.05650865238192
C        -0.46625617464903    7.16740705489678   11.83101488783117
H        -0.36734534940701    8.18916617167229   12.16936824484919
C         3.56045436223885    6.92265804861362    9.58782215603897
H         3.03620206465163    6.18799052249911    8.97908556670955
H         4.23598129821418    6.39396571887539   10.25488955500715
H         4.15100183123751    7.56319936978467    8.93770636360253
C        -0.73281914174880    4.56052943504918   10.93556086751787
H        -0.83656407865573    3.54863129327336   10.57127056002461
C         1.25654175740385   10.67672724266736    8.81949506221752
H         0.19415106588521   10.55717168925966    8.62762576317476
H         1.65079628866835   11.43350053305725    8.14608920700110
H         1.39390383229155   11.01510504025721    9.84429933621858
C         1.83054598872103    8.87902916377576    7.14365350149630
H         2.21980281361020    7.86779641951655    7.02680238989923
H         2.38167993824067    9.54153778143255    6.48013835237949
H         0.78085321211342    8.89915828698661    6.84035624043967
C        -0.92198500182532    6.18455490320090   12.69174421866124
H        -1.17948447055514    6.43806366513920   13.70904840649812
C        -1.04499114581131    4.87922941476294   12.24383267326523
H        -1.39531512630756    4.10768469506453   12.91344356761442
C         3.23354719929701    8.75727586187220   11.30995642989194
H         3.86993578185281    9.43288195273855   10.74421241967014
H         3.85205040922286    8.24406075326833   12.04138111916108
H         2.48767314434684    9.34390154166155   11.84105828470261
Se       -2.46321168292385    8.42296990516852    5.66841080667763
O        -1.73139913100201    5.09669274599084    5.12572836585570
N        -3.86545133359286    5.12266251648274    4.36426361064515
C        -2.19406718181527    6.61045540728503    3.39489513372361
C        -2.59413424783324    5.53973126811483    4.36167547230504
C        -2.02964390816339    7.91724675844170    3.85441364124715
C        -4.30486943630194    4.10824186032243    5.32872359209998
H        -5.37030602464970    3.95353851442505    5.13940063486554
C        -4.87129294249712    5.73913384796991    3.50563363166844
H        -4.33819641724441    6.44410561123528    2.86109523419519
C        -1.85181176554761    6.29529108682489    2.08645056528433
H        -1.95090578988591    5.27353633336487    1.74814065741702
C        -5.87836750728015    6.54065747502179    4.32986837848768
H        -5.35398834357851    7.27529514528721    4.93853002640530
H        -6.55388409547482    7.06939422030248    3.66282695369687
H        -6.46894207589811    5.90021854179422    4.98006149012495
C        -1.58477245001602    8.90216093387205    2.98178914800382
H        -1.48085468602906    9.91405921965262    3.34603218741124
C        -3.57490989656990    2.78631972049756    5.09820771350474
H        -2.51248943070343    2.90574007611794    5.28999164997504
H        -3.96921659903364    2.02963274186537    5.77168151303900
H        -3.71238978210902    2.44790846261316    4.07343054657181
C        -4.14861034156169    4.58413947051821    6.77402161189988
H        -4.53774612536057    5.59542337910912    6.89086336592974
H        -4.69976266445236    3.92170876000786    7.43759625289521
H        -3.09890264951919    4.56388235123649    7.07725745620871
C        -1.39597609463967    7.27803829188482    1.22565824787536
H        -1.13857490436327    7.02444820789082    0.20835146761047
C        -1.27271227749915    8.58335737135035    1.67351578899253
H        -0.92230590515901    9.35481676555587    1.00384844415523
C        -5.55179683728834    4.70594768599275    2.60777770128173
H        -6.18825846372318    4.03045317134373    3.17357427515458
H        -6.17025867483201    5.21922720427820    1.87636451832869
H        -4.80603230248255    4.11919851513330    2.07665933475147

