37
CSD_code = KAHJIM | q = 0 | S = 0 | Stoichiometry = C13H15MnO3S5 | MND = 8
Mn        2.46341681915378   -6.05886003702120    1.83032771871682
C         1.35258471087965   -5.71449751825592    3.69346440872164
C         1.18286187112170   -4.61421144499879    2.80012381194396
C         2.46777180678032   -4.01098973500016    2.61022137263780
C         3.42635329722941   -4.77470943146447    3.32710540847365
C         2.74447102265543   -5.85675671224455    3.97033563756470
S         0.04068168583673   -6.51957586841830    4.59074193817383
S        -0.35309997276028   -3.84067540976326    2.36257086819826
S         2.77317340295530   -2.42959212280690    1.85832981715715
S         5.11640574295717   -4.29742480285660    3.60052944318304
S         3.46089225247275   -6.88671145645777    5.22383320533942
C        -0.25038724070816   -5.18775853611713    5.79623554343352
C        -1.23485740540813   -5.22269835238922    1.58626544863122
C         1.99906674335306   -1.38036983121239    3.12901277356637
C         4.96706198298029   -3.76048959922665    5.33376150257599
C         2.91896141916264   -8.53117382355377    4.68459470193407
C         1.48421892714421   -7.53288200920690    1.56543894490351
O         0.81157902003881   -8.45921208007651    1.47258839757820
C         4.04218911523875   -6.84668901174492    1.49163321581265
O         5.08267669635803   -7.29746487640825    1.35149832935947
C         2.25493936385213   -5.42165978454152    0.16415996080190
O         2.11037210768904   -4.92652467315061   -0.85548419436879
H        -1.05897331451868   -5.52917896913185    6.43407725519447
H        -0.54062721179849   -4.28212166865140    5.27067058891027
H         0.65215445482221   -5.03225588213634    6.38119637950619
H        -2.17200083863611   -4.81117284308341    1.22466305418937
H        -1.42140029698425   -6.00504711207176    2.31589344080604
H        -0.63444123754500   -5.59550188555975    0.75655119332342
H         2.12786686436635   -0.35879583975396    2.78704733609955
H         2.50679785183986   -1.52222092704982    4.07943394285912
H         0.94252986342873   -1.61920496542198    3.20913029755084
H         5.95946044579790   -3.43502834763052    5.62780551645665
H         4.64690225209107   -4.59481718189234    5.95097994479836
H         4.26769554997078   -2.93115024857733    5.40069410808776
H         3.39401602037661   -9.23605156401057    5.35978433570645
H         3.26002492844246   -8.69141870106856    3.66177338987852
H         1.83816129936282   -8.60970674704418    4.75361096229444

