122
CSD_code = KAHNEO | q = 0 | S = 0 | Stoichiometry = C68H44ClIrN2O4P2 | MND = 7
Ir       15.09125594004090    6.55669022607176   16.72847928440996
Cl       17.49178091111858    6.04909474611506   16.74669973359122
P        14.74310983888299    4.72884074874280   15.43035723185631
P        15.51070986922925    8.37278366770970   18.02299685929552
O        13.67088422050380    5.00313821649953   14.24485164100449
O        15.88191813704265    3.86347834429287   14.69804306766836
O        14.42263318977584    8.58200519909416   19.20920366373372
O        16.90655698334872    8.69082701176406   18.75030989677251
N        14.07036260144034    3.44295002928457   16.29423851423196
N        15.43441377517684    9.81531967053155   17.14714653127046
C        13.46495355128345    4.07853187764501   13.23022942117167
C        14.45880474230404    3.80086798275501   12.31703599910145
C        14.21532118875791    2.81314033532846   11.32012496601576
C        15.22593063073975    2.36124689177209   10.44429007043902
H        16.22261488736508    2.76313111172684   10.54054713704893
C        14.95998394546421    1.41513597068558    9.49406019194296
H        15.74514239253867    1.07764912205750    8.83389441447015
C        13.67372801236242    0.87002460480636    9.36967265382740
H        13.47951798696437    0.13099365245232    8.60662187943931
C        12.68135240372714    1.26293073441600   10.22239505304560
H        11.69181349823366    0.83461640661294   10.15122440235914
C        12.92557679323728    2.22685097716753   11.22273225102998
C        11.91951968857697    2.61227052397802   12.13323689679794
H        10.93584785684624    2.17599880685672   12.04138156556988
C        12.18906992902813    3.50326974813778   13.13062826693755
H        11.44290705174243    3.79383439677699   13.85359496625045
C        16.46397065256992    4.46792712470844   13.58668440444085
C        15.75892518210847    4.49744822766870   12.40173311513335
C        16.30220393232320    5.21374575006273   11.29816639289668
C        15.57625771824425    5.43270343067311   10.10745761749354
H        14.57234651275069    5.04440423695793   10.02598877646179
C        16.12253938385492    6.14050632990162    9.07330994006227
H        15.55300368606771    6.30368921918171    8.17029869533428
C        17.41942643192324    6.66560103411273    9.17455306212513
H        17.83778532003076    7.21486652134352    8.34414397363703
C        18.13772015388371    6.49405498579358   10.32393024658194
H        19.12955659767284    6.91143246529453   10.42224728687994
C        17.59985720204537    5.78041295893500   11.41576925599928
C        18.31486649375145    5.63404680793938   12.62364258385916
H        19.30742871814647    6.05208848486079   12.69792688287373
C        17.75194667427976    5.00897434754820   13.69938171971573
H        18.25381877634976    4.94277800823538   14.65101308956403
C        14.60778068979493    9.56770460114655   20.17066499851459
C        15.63899883662383    9.47987007117985   21.08051028779167
C        15.83137630010073   10.54770674904064   22.00234726870043
C        16.95565319330115   10.61269264422520   22.85329928033052
H        17.70155114786284    9.83495205573486   22.79694651027344
C        17.11501875000619   11.65231760677295   23.72653638423990
H        17.98336236376745   11.69089555152798   24.36733690855853
C        16.16155711677020   12.67870114703911   23.79595024621987
H        16.29915671830718   13.48702986651068   24.49869320135680
C        15.07680534620866   12.65984443756201   22.96567126254831
H        14.34670413765000   13.45598504898192   22.99467507611675
C        14.89011823738172   11.61008789809524   22.04229547676702
C        13.79542513560432   11.59716435321871   21.15278387578621
H        13.06852819259215   12.39410950281215   21.20636901540440
C        13.66891505916366   10.60913157601899   20.22031767248981
H        12.85485535839050   10.59423307025100   19.51272223046924
C        17.17043028240557    7.95245892181787   19.90018593733023
C        16.53148814753810    8.30282769853729   21.07060610936406
C        16.72942676588793    7.50068918412459   22.22939451223256
C        16.00490658548772    7.70329135899229   23.42385118923801
H        15.26846177947586    8.49134538187302   23.46425072894962
C        16.21596817313211    6.90821814130652   24.51558535553637
H        15.65266774604631    7.07503283818843   25.42186164603924
C        17.15695725120687    5.86904296023826   24.46991431485479
H        17.31689220277580    5.25661424628034   25.34486895595800
C        17.85207425346202    5.62750527967425   23.31888059291760
H        18.56383820489246    4.81628422146885   23.26506135525008
C        17.65215653577693    6.42178656783567   22.17016585156332
C        18.33517140629590    6.15727453168812   20.96391901109223
H        19.04216251194874    5.34187177161338   20.93148761558462
C        18.08819683761034    6.89475562116403   19.84132574740405
H        18.55424733933275    6.67378379628431   18.89441382472167
C        12.74069008737607    3.74281979035387   16.73299302151722
C        11.73171859129083    2.87826378722137   16.34111765114774
H        11.99824921496069    1.99485795939838   15.78023895668379
C        10.41180463361630    3.15731376747441   16.64852066620797
H         9.62962571134610    2.48127541201403   16.33783246968512
C        10.10270273541737    4.31975132624352   17.33828760283899
H         9.07320631490751    4.55749198893219   17.56206442569091
C        11.10843964460359    5.16954993264320   17.74972506795033
H        10.86481266349198    6.06553259088264   18.30268197909923
C        12.45338013532967    4.89203127137318   17.48111207439853
C        13.48285051095759    5.76435763534828   18.03183050193057
H        13.06567673223013    6.60206666504288   18.58605401398119
C        14.75359486585804    5.30550712560312   18.48858794676927
H        15.14429651041982    5.82623453691777   19.36592277482105
C        15.24703990093717    3.93154038649911   18.41254142395074
C        16.12153545250075    3.47613639467616   19.40401648361837
H        16.39849521648598    4.15106202088563   20.20179263130431
C        16.63733913868809    2.19723864324931   19.37274503513498
H        17.31359411879763    1.87304444315646   20.14975608576685
C        16.29824581510982    1.33332375622725   18.34335298261836
H        16.70894980836299    0.33559493829638   18.30969634987621
C        15.44108876735215    1.76259648438223   17.34642339203174
H        15.17756298542469    1.11863717716476   16.52130974603723
C        14.92168408763620    3.04494809369729   17.37749305194668
C        16.37863806833984    9.82459715185512   16.06807692575086
C        17.37658193636626   10.78298156530312   16.09639991428634
H        17.39913212076298   11.48038728958871   16.91983200189850
C        18.33296727922846   10.82296768261171   15.09813529149335
H        19.11533531825942   11.56603815961946   15.12932606196253
C        18.28743844359345    9.89501322533870   14.06962848059778
H        19.03486646607283    9.91440041509390   13.29040952051966
C        17.29465713685477    8.93797789561021   14.04144686632518
H        17.26976685663086    8.20920200202414   13.24344393462906
C        16.31256024385836    8.88043927607347   15.03506363292253
C        15.30119059215034    7.82785577183514   14.96325535580598
H        15.44677420099818    7.18878735613776   14.08927845602014
C        13.95253594967295    7.93061190041646   15.41697153582211
H        13.23017408009114    7.33444834993609   14.86429720748559
C        13.37052737562690    9.15376720418680   15.95431625370466
C        12.03288805660994    9.45390495963847   15.67442433090150
H        11.44298285019255    8.73124891635792   15.12885573425928
C        11.46813674048535   10.65045501919783   16.06453951909318
H        10.43383360805841   10.85744477350219   15.83265777539089
C        12.22865588628892   11.59145564550328   16.74181936334123
H        11.79638015194298   12.53659050708577   17.03366329399697
C        13.54344638582480   11.30253155911948   17.06202217406403
H        14.14936991792898   12.00491737782632   17.61468166991875
C        14.10366062270788   10.08989023066989   16.69502231889235

