70
CSD_code = KAHNOZ | q = 0 | S = 0 | Stoichiometry = C27H31N4O7Re | MND = 6
Re        8.49354172229675   14.55759364066348    4.59127197276947
N         7.24118917951795   12.83786628728134    4.88390912371408
C         6.18475972414845   12.82317653307829    5.69954183477423
H         5.83415539938523   13.72705877264729    6.16912778462969
C         5.66483366813646   11.53963179640676    5.82497781215947
H         4.80187270929589   11.25022138858979    6.39283639027371
C         6.47656716962111   10.71740452233328    5.06778245253865
H         6.29579193211814    9.67614968911068    4.90663731142221
C         7.46839701329114   11.53694584925868    4.47765632591112
C         8.49653941332079   11.22696969983811    3.53234545658599
C         8.84197257912660   12.20625209903182    2.54940233523017
C         9.14566917055244   11.94582833406387    1.19524225892925
H         9.20622686310405   10.97950990426670    0.73860576187077
C         9.23504850936934   13.17236955882134    0.56401543778171
H         9.42809408127509   13.35343605325631   -0.47572134894621
C         9.01470782912852   14.13427556142932    1.54534428962517
H         9.03301423096613   15.20606888100417    1.44098199640031
N         8.75875540498377   13.56620148365357    2.72818140590289
C         9.77368260391206   15.97175144973332    4.19350716417374
O        10.55028911348363   16.78013396824372    3.93833044115431
C         7.01222722859658   15.62741336267744    3.91779909245554
O         6.12842752496213   16.23089956525406    3.50541445278945
C         8.24588928646653   15.21604806463219    6.41011462328016
O         8.10366842964428   15.56274299827779    7.49658000031918
N        10.12137518273043   13.17365375805997    5.26153926926337
C         9.94118000927265   12.34682212934317    6.29123352907885
H         9.01873663644798   12.45295550784815    6.84826593640578
C        10.86884219287176   11.38967365874554    6.66272540170166
H        10.66635979207141   10.74464415743500    7.50305926234406
C        12.04908786663068   11.28479292281119    5.94480648911795
H        12.79784323186978   10.55376807079894    6.21128577958444
C        12.24508985861732   12.15029560723811    4.88016103852488
H        13.14801290362341   12.11620417348827    4.29123899405013
C        11.25864102640385   13.07068160728003    4.57410147715110
H        11.39022704884008   13.75386512337369    3.74425866379343
N         9.12686711956006   10.02189698635709    3.50381156865126
C         8.75030574077479    8.94209543939673    4.38581028076887
H         8.31095496969401    9.34348869998759    5.30418030128779
H         9.64724606154495    8.38138536543256    4.66171651335003
C         7.73860202838700    7.97351244774124    3.75773180121192
H         6.95621432829240    8.53122645214284    3.22219703478472
H         8.22191037638396    7.31157159679671    3.03406047248324
O         7.17466533547488    7.22400711791470    4.81919690416715
C         6.33907981797086    6.17024535963452    4.41086458490764
H         5.84256593852506    5.83100143804193    5.32232086720449
H         5.58772242973303    6.52465911771150    3.69255166271415
C         7.10280600229256    5.00091155818734    3.77874823143260
H         8.05239578404648    4.85681760093644    4.31497262213619
H         6.51138506139547    4.07685130503001    3.86365582270637
O         7.34038515995789    5.30287771638175    2.42285452132148
C         8.24915322037349    4.44877532300493    1.77409734244803
H         9.18104823424944    4.36393345053558    2.35155906281015
H         7.81744688269674    3.44430680697668    1.64937608171645
C         8.55042251321365    5.06177051709511    0.41179528914273
H         7.60303624521774    5.39950387566807   -0.02725317878749
H         9.00515249103696    4.31221964326328   -0.25253724952842
O         9.42735429803116    6.15399944689834    0.58164570203371
C         9.37420512031666    7.07242690163980   -0.48890509355979
H         9.51685093662475    6.54388900560410   -1.44353627162332
H         8.39503514393231    7.57253613432436   -0.50692067719977
C        10.47756729307865    8.12510659443226   -0.35148502843673
H        10.53011871241967    8.68572065015311   -1.28886785890537
H        11.43782297828814    7.62163284146884   -0.17566789740927
O        10.23722924716782    9.08464799035640    0.64527118122659
C        10.61980678566997    8.69331847339108    1.94476695222421
H        11.68728325953728    8.41745129232792    1.93266997356879
H        10.05051422235366    7.81472657665083    2.26327370618822
C        10.44831713850818    9.86178981827922    2.92294721369676
H        11.14883075911305    9.68854884606918    3.75339174968139
H        10.73478182805377   10.78024143018826    2.41114559482468

