69
CSD_code = KAHTAQ | q = 0 | S = 0 | Stoichiometry = C25H41ClPRh | MND = 6
Rh        1.62358214716078    9.23513738227827    6.46691014581655
Cl        2.19305570231022   10.97427782309971    7.76254441100633
P         1.28529103592162   10.69563604037312    4.74081230692646
C         2.61774986157553    7.77136956975041    7.70038756482146
C         1.30930687600387    7.88042019271539    8.11847733065795
C         0.51171901537751    6.86008494744615    7.30902099199371
C         0.56304307909956    7.49200078596189    5.91618365438992
C         1.88940628140884    7.38138624622474    5.49254827046585
C         2.63931248687543    6.68281693776826    6.62896462410402
C         1.55059449617837    5.73800940059420    7.16018312851928
C         0.43484108571971    9.96699993712883    3.22936111112321
C        -1.06416689312156    9.82303126741747    3.49056931934391
C        -1.70660959512969    8.93742079810931    2.42714315362363
C        -1.49453476615166    9.55610483214944    1.04890990748050
C        -0.00612048615109    9.75242364835089    0.77929974648683
C         0.65143366652484   10.61200328147940    1.86139465017565
C         2.90534385659761   11.30148583101217    4.03743846163001
C         3.77771055457204   10.05619989842745    3.85549825167872
C         5.15812310495939   10.40531943118652    3.31072162354065
C         5.85218250859263   11.39885786399907    4.23463884063182
C         4.99680115961225   12.65153028553269    4.38122753813917
C         3.61853085104116   12.30597946644481    4.94097983764761
C         0.41604193823908   12.25682556981387    5.24951454487942
C        -0.81402091523583   11.96388305219390    6.11023533898859
C        -1.27395418168158   13.25534811469350    6.78004935378329
C        -1.59768755142497   14.30916160663225    5.72333039080156
C        -0.38945257330089   14.56967669152933    4.82711850385998
C         0.08096502044615   13.27474051088121    4.16454281601215
H         3.49905278784581    8.13491828615301    8.21319939512318
H         0.95083624448281    8.34549497786532    9.02769182451062
H        -0.47109345349687    6.59388204048015    7.69008800992194
H        -0.30740884725535    7.54594650266985    5.27818099583964
H         2.23386541417576    7.34265287426367    4.46839763584572
H         3.60839997535796    6.25407864305108    6.38586132302336
H         1.81478425641803    5.26921247639877    8.10886190974696
H         1.25636062416296    4.97482197958943    6.43869517623094
H         0.85580519895777    8.95234491449556    3.18211870450624
H        -1.22896123299131    9.40900987791760    4.48863258014190
H        -1.53746293057619   10.80492181539438    3.45056024319043
H        -1.25647561899481    7.94201574528523    2.45386219943202
H        -2.77467555658986    8.82776119097751    2.62736374445815
H        -1.92935405381698    8.91623571832574    0.27839118795198
H        -2.00202747050370   10.52267564119524    1.00503840079038
H         0.48465625365584    8.77627429308099    0.75035144498677
H         0.13468116424485   10.22410721057270   -0.19575185356154
H         1.71449834976368   10.69265213875478    1.63211906727747
H         0.22057906164146   11.61341456510310    1.83994497190057
H         2.72444606227820   11.77642116612779    3.06673829524866
H         3.28508693823145    9.35029398880595    3.18132242520073
H         3.88369377246887    9.57316385624682    4.83858480127070
H         5.05628520579554   10.84534671975812    2.31481271670833
H         5.75753680483785    9.49730653607823    3.21419765097820
H         6.83565022598676   11.65836652871781    3.83700554201129
H         5.99344553864161   10.94279707318914    5.21643531918983
H         4.88631995710546   13.13016690846560    3.40383306452220
H         5.48850957776591   13.36293668424564    5.04732095430724
H         3.03451372568962   13.22387293955768    5.02233950885890
H         3.72496362880269   11.88280902923009    5.94123921708481
H         1.15520310769270   12.70159582932044    5.92923823094534
H        -0.55088442694218   11.21463514268865    6.86691138731927
H        -1.63159416977168   11.56726426233540    5.50796536495656
H        -0.48157883681747   13.62277891294915    7.43472769756665
H        -2.15587718854286   13.06391407188967    7.39484578167674
H        -1.90508400317178   15.23884186291169    6.20651606035436
H        -2.43339715619223   13.96099794982936    5.11048970163835
H         0.42329491407640   14.98187248270071    5.42928016942875
H        -0.64630268948971   15.30613525034047    4.06176522586021
H         0.95415373902938   13.47537383531770    3.53990011355038
H        -0.71803265996901   12.89735666452444    3.52351799147454

