71
CSD_code = KAHXOH | q = 0 | S = 0 | Stoichiometry = C32H34Br2NPPd | MND = 4
Pd       -0.27172128518323    3.79279258667033    4.37987446015671
Br       -2.32978856619208    3.32344339687091    5.53374020923290
Br       -1.13531874362375    3.15206785978920    2.24610019055115
N         0.83508441844269    4.15356344980586    6.08868237035650
P         1.42273059751573    4.92718678702295    3.44414136056028
C         1.80330701061938    5.98516818171184    4.93234864548994
C         1.73988109406859    5.06427642444108    6.11226790439977
C         0.64351605144307    3.18736522888733    7.09476452794770
C         0.06051224588626    3.53473632171980    8.32042290048322
C        -0.18623284882772    2.52169265069516    9.23663905869452
C         0.12839536748257    1.20767193049104    8.95699377792147
C         0.71164745701228    0.87971686347880    7.74746672863794
C         0.98586216149658    1.85420962118100    6.80156947728326
C         1.63349755909577    1.46925825544989    5.48363558509099
C         0.62319554785097    0.70904784604348    4.61182516614454
C         2.89977126987471    0.63345760902196    5.68313414771120
C        -0.33003115843779    4.95533723701514    8.65633735760084
C         0.45226397261987    5.45326312267288    9.87522827007506
C        -1.83610593159656    5.05961651736438    8.90837402408937
C         2.73702258082481    5.24061764011883    7.17608836585458
C         3.07532420816516    6.53422822642023    7.58030577023870
C         4.00330845548582    6.73377571007576    8.58368897964900
C         4.62222539086572    5.65012974040367    9.18606047769922
C         4.30446575560215    4.36433074436257    8.78076796958228
C         3.36558624179442    4.15639544422452    7.78791414941658
C         0.90927450709932    6.18450426821559    2.24701577909021
C        -0.40817569346000    6.62145144296325    2.38404348092927
C        -0.90203420071363    7.59573217765909    1.53940193933968
C        -0.08282339591346    8.13340735175123    0.55786178126754
C         1.22659494875253    7.70151638713010    0.42372924839928
C         1.73014430198200    6.72603729506573    1.26663211195561
C         2.99550486936841    4.24369691548965    2.88010735912226
C         4.11899146572173    4.14130038528319    3.69522030003910
C         5.24286858858292    3.48052509047087    3.23207175212053
C         5.24744539196078    2.91079837517395    1.96933609532386
C         4.11966275163149    2.98811158311104    1.16539518459863
C         2.99167614964172    3.64187910607558    1.62060861059758
H         0.98386018838318    6.71655564049728    4.97727517558080
H         2.75310363946839    6.51961292911306    4.85347186586581
H        -0.64299665831587    2.76734373225723   10.18217199029145
H        -0.08480137405158    0.43468818791937    9.67948646865223
H         0.95100517865991   -0.15021319757540    7.53438089224174
H         1.94388650731164    2.38001022188739    4.93984774940036
H         1.03305927051957    0.53964535785892    3.61633671453476
H         0.38397787430151   -0.25302092343372    5.05940160615286
H        -0.31692521826977    1.27229980213927    4.51756624854342
H         3.37834558314164    0.46283321057922    4.72077846401328
H         3.61047759212530    1.14472506667313    6.33068439371957
H         2.66944325865253   -0.33280106374294    6.12313904942920
H        -0.09115699132065    5.60866098580982    7.80971774275249
H         0.22722183804053    6.50179139301183   10.05823107318150
H         0.17952317951926    4.88702084146252   10.76182856789694
H         1.52489250106405    5.35149432654874    9.72219656917192
H        -2.11252153806686    6.09839634980259    9.07588023171262
H        -2.12555839318985    4.48225758034808    9.78184837916567
H        -2.39017154400168    4.68351398690410    8.05259599905951
H         2.58493057515594    7.38421625681896    7.12889822025593
H         4.24412990332851    7.73845951806766    8.89688661427634
H         5.34881462389943    5.80791818160878    9.96836893969838
H         4.78669754935314    3.51582800851766    9.24205608093299
H         3.13280863477437    3.15122750373157    7.47531801650194
H        -1.05239561955878    6.17231131241584    3.14805511971382
H        -1.92454322585893    7.92767279127209    1.63571135345423
H        -0.46976402483035    8.88830014161741   -0.10998373209493
H         1.85874909789957    8.12254036522120   -0.34404272222263
H         2.74955234128498    6.38167493028371    1.16116508844042
H         4.12124426849018    4.57088693356571    4.68822104198632
H         6.11632512879552    3.40630737910671    3.86322846551979
H         6.12777701319702    2.39556256777173    1.61556597262578
H         4.11790277605979    2.52938572047543    0.18820757453631
H         2.09387752709012    3.68658418715416    1.01670926736207

