59
CSD_code = KAHXUN | q = 0 | S = 0 | Stoichiometry = C28H26I2NPPd | MND = 4
Pd        3.15233634572537   -1.36632055709035    9.41008730170880
I         4.41342892134698   -2.89399130198593    7.72743467293215
I         0.84364730724973   -2.54578921864675    9.26184839756911
P         2.15935382818266    0.50012419430123   10.13428752495393
N         4.81529335635600   -0.46274312177818   10.16210860492854
C         4.81263008227409    0.77511790812487   10.50246474836207
C         3.65732666373253    1.60940587983166   10.04228732515744
C         5.86184064446616   -1.35185324714589   10.47421323989065
C         5.59680327073760   -2.43669187556240   11.32587470330826
C         6.62595071893715   -3.31810629811573   11.61302643894684
C         7.88067162688328   -3.15034149537175   11.05480488281302
C         8.11452779788937   -2.10459432216971   10.18301211642188
C         7.11671337970183   -1.19163542868728    9.87565141956982
C         4.22050404574597   -2.66783628059637   11.88981214279192
C         7.36294968167381   -0.10265391012890    8.87584435348975
C         5.83804719372439    1.40780609140808   11.34293842868803
C         6.30566428746960    2.68113187345049   11.01227863806754
C         7.27741291716097    3.28927284781968   11.78317797676423
C         7.78055049591681    2.64730927312066   12.90332366524535
C         7.30543157645754    1.39361709639739   13.25075831098435
C         6.34434051132935    0.77218710275893   12.47610226789978
C         1.36177966933595    0.82140394468526   11.71821780651234
C         2.06394648849062    1.31603997375574   12.81441376734959
C         1.42493979765541    1.44520909487410   14.03409696532811
C         0.09920804414030    1.06538785073093   14.17073998037669
C        -0.59177208553558    0.54247213217120   13.08832704392773
C         0.03588388896279    0.41177378892736   11.86470148228813
C         1.11089858575916    1.19372516315423    8.83123658210089
C         0.11203322112358    2.13608818891410    9.03980280128474
C        -0.61049778123677    2.60784440582049    7.95767466686288
C        -0.33780642260947    2.14720016159627    6.67986009432493
C         0.66600085239237    1.21357393682980    6.46912480814992
C         1.39145520884760    0.73606269395934    7.54269808853875
H         3.54794603956087    2.54236337841582   10.60046671089563
H         3.77215159288610    1.84534053582948    8.97414528730969
H         6.43309189634714   -4.15353787442554   12.26951508554482
H         8.66889347721636   -3.85116537054925   11.28220186239925
H         9.08228721553541   -1.99493442414472    9.71749771930034
H         4.26468431896414   -3.37817510411303   12.71301902923934
H         3.75841693560046   -1.74199857951560   12.26385371181024
H         3.56778665510394   -3.12002855986311   11.11298046523523
H         8.21608011819027   -0.35818303946621    8.25326565879281
H         7.57215743985155    0.84807518629283    9.36978430750927
H         6.49599459445860    0.02920731892547    8.22767069360043
H         5.92737817500778    3.18044681552446   10.13166971137349
H         7.64240100930841    4.26755425101331   11.50866062647364
H         8.53866886161353    3.12494943501629   13.50488469930230
H         7.68526217688383    0.89352794592946   14.12856701120291
H         5.97153534041575   -0.19828595262378   12.76591080344750
H         3.10486877197306    1.59878299858932   12.72028811333569
H         1.96661121514422    1.83827903060554   14.88201662140393
H        -0.39213946904678    1.16653895173512   15.12666653933942
H        -1.61837220359766    0.22832321138629   13.19944546803792
H        -0.48838927369410   -0.01552189954754   11.01997217818290
H        -0.10218771904462    2.48833069570624   10.03947491576829
H        -1.39394032962282    3.33429199801786    8.11490889156113
H        -0.91417292239283    2.51270202612908    5.84342921188061
H         0.87236914738244    0.85123382361582    5.47351314735519
H         2.17522281567112   -0.01971334387063    7.38586028215845

