60
CSD_code = KAHZUR | q = 0 | S = 0 | Stoichiometry = C30H22N2O4PRe | MND = 6
Re        7.63689506284239    9.68546679953902   10.83592010879319
P         5.60235313849288    9.11210799266352    9.53103809623931
O         8.65726685897443    9.31824672105216    8.87979940641732
O         6.05566463694181    9.68910896890425   13.49439775240265
O        10.38442589508148   10.07110872224671   12.20281755009733
O         7.41829466104818   12.70380292520682   10.18760641404636
N         7.96162425148796    7.57610597838842   10.77091437127203
N         9.69502875180469    8.76720446052059    6.46050461254192
H         9.80232760677485    9.71619014050800    6.78312007064696
C         7.80970630130037    6.53021224504095   11.57158093740731
H         7.38349342749203    6.63664939696887   12.55397755904504
C         8.26798848233320    5.36071424520473   10.95204078243914
H         8.27196161705141    4.37852275421817   11.38465754916157
C         8.71552936482850    5.72410722142737    9.69777653433427
H         9.15918189684772    5.08874921053329    8.95711259177372
C         8.51220272565909    7.11337230136128    9.59113173198653
C         9.23088672056817    7.76326516501643    7.26426753650519
C         9.19336848060936    6.60954727056015    6.49937926674879
H         8.84974449308685    5.64585490556432    6.81459669539390
C         9.65710539440694    6.94296549577405    5.22222529038638
H         9.75581707607747    6.27727378071463    4.38785695030681
C         9.96341309271928    8.28426078115415    5.23334629400453
H        10.35271658143808    8.90815895797694    4.45280350473543
C         8.80053569015839    8.08644112034256    8.60660671831610
C         6.65669685833137    9.73059975452187   12.51469660555208
C         7.47382861726565   11.59551114926238   10.48024265908063
C         9.35751295941282    9.93978181329451   11.71845715354213
C         5.86760623587361    8.92631986228322    7.73738569686133
C         6.50918463795793   10.00275503261516    7.12587452990077
H         6.79037937230209   10.86011540627714    7.72619867928024
C         6.79537586029934    9.96822886280369    5.77574823605239
H         7.29491065931731   10.80434770688180    5.30802631744422
C         6.44727622358338    8.85722281922422    5.02324217420319
H         6.68623969664060    8.81977740905753    3.97098735921270
C         5.79018003299854    7.79691832186226    5.62169782023905
H         5.50614049045717    6.93612991262030    5.03437280480390
C         5.49338245428118    7.82827475031765    6.97413372176559
H         4.96382450894326    7.00119905448940    7.42448552683205
C         4.24255968172730   10.33053066132829    9.51399022602338
C         3.25390906437750   10.26002289797443    8.53670050850338
H         3.30109666429736    9.49215569917846    7.77637305293892
C         2.21508305398634   11.17165064891711    8.53751996966950
H         1.45160318797582   11.11544927019694    7.77545060877034
C         2.15251949449922   12.15521152826737    9.51217385994832
H         1.34076206634546   12.86728680897878    9.50763961317397
C         3.13032770091130   12.22430377545816   10.49031743876061
H         3.08330511194214   12.98777448061720   11.25222736449930
C         4.17392056871779   11.31536348889943   10.49266820869204
H         4.94288569186608   11.36340382912227   11.25442601307230
C         4.73918432167950    7.61350965217943   10.09477553194166
C         5.25005792564429    6.34817781715228    9.81415039521401
H         6.12584200015399    6.23922930128014    9.18968164307378
C         4.64521751621623    5.22140171336410   10.34007587027354
H         5.04879117213323    4.24552003943728   10.11344203375710
C         3.53971884497498    5.34493770824503   11.16432379471815
H         3.07288083092226    4.46380929561902   11.57880691655040
C         3.04166742412184    6.60193697888568   11.46624892823615
H         2.18765219794197    6.70346784096694   12.11955886260573
C         3.63963706410131    7.73227134489519   10.94138055303372
H         3.25530759997498    8.71156580271911   11.18984099670256

