74
CSD_code = KAHZUP | q = 0 | S = 0 | Stoichiometry = C30H38N2NiO3 | MND = 4
Ni        2.53838476969800    6.35858851843294   13.42125084411048
N         4.89286624129039    7.15357914072993   11.64870433397419
O         2.34713004152786    3.93889298428709   15.06105638227965
C         4.72945739729080    8.54508098308929   11.89878272599127
N         4.80266322384449    5.01237146340288   11.87836199613433
O         0.31511555638973    6.23890901583590   11.53033703866443
C         3.84640553979180    9.29242964900914   11.11499292907075
O         2.54407270070288    9.08718677184829   14.48782168523863
C         3.72914674910061   10.65237515898879   11.36826864046000
H         3.05534329433753   11.25005709544102   10.77452213598956
C         4.45786382034043   11.25124428932638   12.37690548049605
H         4.34662525015967   12.30839959913398   12.56782310953979
C         5.32721326529756   10.50009761100918   13.14280295225809
H         5.88927515789911   10.97848608333413   13.93018703951806
C         5.48498619326500    9.13990603479334   12.91475596494859
C         3.04198501851174    8.65566333765900   10.00669314104553
H         3.11565324499317    7.56748642968825   10.10374244237960
C         3.60621851496941    9.06817314600197    8.64393917839885
H         3.52110134166059   10.14398834978897    8.50869403173311
H         3.05643716475777    8.57590342056079    7.84463577298791
H         4.65802876447415    8.80068924562977    8.55780332077207
C         1.56260908336918    9.03177775423640   10.10501862474937
H         1.20375991877231    8.88480663800468   11.12121382724504
H         0.97345883676144    8.40810409497330    9.43621547416737
H         1.39945939920703   10.07062052044876    9.82981630194928
C         6.45524328942437    8.34663578247756   13.75899881070116
H         6.46845463194559    7.31005233581534   13.41183980646572
C         7.87314296025279    8.90869919918712   13.62657094799133
H         8.16980277295317    8.96645103112637   12.58042600733039
H         8.57928239478166    8.26839125965479   14.15135896456548
H         7.93815293714931    9.90618762837827   14.05267240036597
C         6.00983104772075    8.32569576943373   15.22163835488870
H         5.91229533874480    9.33299393286711   15.61776442258858
H         6.73525950896831    7.78513055530745   15.82572324659968
H         5.04789114297959    7.82445572865886   15.30867502231443
C         5.94005818128548    6.69629120230192   10.73684081236968
H         6.90733362887821    7.12010798567436   11.02428975331812
H         5.71426430327385    7.01971489306161    9.71658934290732
C         5.87559136549748    5.17791942302705   10.89911748574805
H         6.80678151473503    4.74468297625477   11.27715324415247
H         5.61332528361817    4.66671880788793    9.96828065332473
C         4.26320506963990    6.16324976795059   12.28238111304704
C         4.53077717726203    3.72338476381934   12.41713895380247
C         5.25164052832224    3.29652747633712   13.53747479141796
C         4.99271818764333    2.03052305424083   14.04455701271576
H         5.52780599931080    1.68414844961518   14.91545016246850
C         4.05721323371085    1.20661268150834   13.45076326623104
H         3.86813928309237    0.22424588377846   13.85771365731072
C         3.36135703729200    1.63790676352442   12.33870415388889
H         2.63422215343017    0.98471542794892   11.88224001498286
C         3.57977735017591    2.90150341510945   11.80663079523265
C         6.29191423326277    4.16979218092180   14.19983531917907
H         6.37479894239673    5.11007425175442   13.64831536221048
C         7.66206441003535    3.48683096791706   14.18224738098022
H         7.66065725011009    2.59552009748692   14.80387306754106
H         8.42274633837684    4.16547938499665   14.56282323327382
H         7.93516230910597    3.19381902041920   13.16963972138204
C         5.87547059057272    4.52171570960379   15.62843909128518
H         4.95453206386113    5.10091330768491   15.61402399016821
H         6.64925728487311    5.11800320321277   16.10706832207756
H         5.71205775534874    3.62669734239988   16.22277774184438
C         2.80815559935640    3.35498559736594   10.59013011592759
H         2.96478086161741    4.43084663882690   10.45963899816109
C         3.31746754681564    2.62806739960588    9.34206807316991
H         4.38411141521476    2.79317060996625    9.19985221505737
H         2.79070170792914    2.98335016009271    8.45902096507293
H         3.15260027103775    1.55692452898894    9.43385325011701
C         1.30651057304671    3.12134003024393   10.76466710958243
H         0.75454762626132    3.63964660424637    9.98362886540838
H         0.97657664759108    3.49842159806167   11.73009027253281
H         1.06146626724765    2.06389670107914   10.70669981348829
C         2.47641546931340    4.91199587047837   14.47654357742021
C         1.20477162527326    6.28141575622473   12.24639757965459
C         2.59550640085062    8.00272950782008   14.13202736363487

