54
CSD_code = KAHZEZ | q = 0 | S = 0 | Stoichiometry = C24H24N2NiO3 | MND = 4
Ni        5.31086783419664    5.99208681319804   14.35629576225097
N         2.59918546764266    7.10249657633960   15.36075713192491
C         2.76708094179566    6.52246646770096   16.64855744509778
O         6.51495017365334    6.41033370976432   16.98988016817280
N         2.95010444395572    7.73177702294427   13.35050836919650
O         4.74449935335892    3.13114479887744   14.19879993984001
C         2.30609821237872    5.22731888544844   16.88181230962305
O         6.75476131700694    6.92137794930017   11.97834405228385
C         2.49716207637422    4.68061652337952   18.13999985356173
H         2.15470994665319    3.67446375000344   18.33523746642311
C         3.12585083257917    5.39320784504007   19.15333886562609
C         3.55667851903870    6.68574467388519   18.89553519978456
H         4.04419027897689    7.25096311344958   19.67672832918456
C         3.38576839458280    7.26939777468598   17.64911280741798
C         1.61316526834519    4.46357356239833   15.79502783624167
H         2.20726465966956    4.47614600999134   14.88230638409327
H         0.64552389057418    4.91365520366065   15.56955598919012
H         1.45331408703314    3.43126914587020   16.09307116739972
C         3.32115167455393    4.76610787566886   20.49955328621640
H         3.84556670878871    3.81701040282184   20.40190018626725
H         2.35708613194255    4.56663819220976   20.96673882041951
H         3.89561692909360    5.41635555964405   21.15381465921932
C         3.85021719367179    8.66701495249868   17.37176539812340
H         4.38481164489315    9.07038005825259   18.22711876163139
H         4.51400104723696    8.68199280034274   16.50728415978899
H         3.00256140188771    9.31729412405337   17.15248747351017
C         3.50084510066663    7.02299730354849   14.35858679041718
C         1.51086561733907    7.84181344280966   14.98736634336222
H         0.68648175890556    8.01676266584390   15.64804429501424
C         1.73317101957436    8.24106947853507   13.71366049760956
H         1.14062042717348    8.83160838717195   13.04504975817288
C         3.55535192525117    7.95431045985156   12.08292208795206
C         3.35460400646703    7.03170144191152   11.05775330925392
C         3.95381764476263    7.27236183828565    9.83154894995622
H         3.81511032305038    6.56111088045504    9.02999836247981
C         4.73625765243442    8.39845786601434    9.61633453209257
C         4.91607689984733    9.29955466988477   10.65675273387310
H         5.53155757637406   10.17395813129948   10.50146170406096
C         4.33603820578241    9.09460102208098   11.89837021221058
C         2.53506676208451    5.80252863385020   11.30243219364595
H         2.44510995027845    5.21133356028868   10.39554466272810
H         3.01399670899927    5.19235931541726   12.07005104419643
H         1.53655893183897    6.06123336493214   11.65484794069780
C         5.40499030159216    8.61869299133841    8.29479190114012
H         6.38540418787412    8.14169204818370    8.29729120272092
H         4.82192175150679    8.18471036167923    7.48592041505624
H         5.54737481755980    9.67932973210496    8.10180935047913
C         4.56321131924144   10.04277862294479   13.03566704484274
H         5.19795358839329   10.86869080083340   12.72726537279937
H         3.62001347810840   10.44501003140412   13.40564063672155
H         5.04994346129086    9.51830918932900   13.85911187253124
C         6.05681292356328    6.30232435141256   15.94926906509769
C         4.93415851002955    4.25778476651602   14.23862316637296
C         6.18929672012898    6.59498085064074   12.91545273202709

