32
CSD_code = KAJGEI | q = 0 | S = 0 | Stoichiometry = C13H14BrClN2Pd | MND = 4
Pd       -0.32396460326141    4.66042051919722   24.08139147782454
Cl       -1.28148162407162    5.26755330462029   26.10261166915929
Br        3.02579907691255    4.54445289254227   19.19854592301224
N        -1.00988662592802    2.75522183755972   24.31291064211084
H        -0.28863222448768    2.29686529070511   24.88334785901387
H        -1.87852712886970    2.74506767661598   24.85507650184494
N         0.34294172243119    6.46755828809528   23.87908670580500
C        -1.03785919079094    0.53565541817680   23.23614523821094
H        -1.72196997405202    0.21818289302669   24.02177386648196
H        -0.02233959193274    0.26621130983319   23.52175774413907
H        -1.29565496441816   -0.00645617211133   22.33150289205559
C        -1.14524503101074    2.04567781719526   23.02120233072779
H        -2.14176452085684    2.28361281292462   22.62055286143058
C        -0.10323917842796    2.61325910986321   22.07032681048458
C         0.31047491920574    1.93344214291173   20.93478801158540
H        -0.08813102171028    0.95797793021948   20.69889713509931
C         1.23993784448685    2.49838931045422   20.07796780842502
H         1.56436772646408    1.97291901864021   19.19327665489416
C         1.74187482959627    3.74947508941356   20.37827182060246
C         1.33777059942045    4.44701239108660   21.50403846969352
H         1.75876865879184    5.42689279763089   21.69415237986428
C         0.40033526146606    3.89365103620514   22.37211705492749
C         1.29854266377697    6.88909265582768   24.70946282887560
H         1.78534504402579    6.12525915961421   25.31421669961658
C         1.65140130678918    8.22242757551457   24.81329975382285
H         2.42692009683709    8.52297520286423   25.49968437755618
C         0.98689085967904    9.15690097630364   24.03260012430755
H         1.23447163228690   10.20528413497665   24.09579577608579
C        -0.00626367767113    8.71311984921080   23.17224641913095
H        -0.55163226196225    9.40453542537351   22.54962794522691
C        -0.29699657296774    7.36120273136839   23.12331952686366
H        -1.06585404976328    6.97085957414617   22.45920469111931

