55
CSD_code = KAJKIQ | q = 0 | S = 0 | Stoichiometry = C27H8BF15FeO3 | MND = 8
Fe       13.16289371145979   -0.34713696104644   11.99423694512927
C        12.57316394679387   -1.90164205488244   11.42572075150632
O        12.18432431808958   -2.90085908135519   11.04635592818607
C        12.48550997792633   -0.70754701304913   13.56358044117964
O        12.03792454396484   -0.98793953434257   14.57431471281208
C        14.55555919518867    1.29361054549091   12.42789401327198
C        15.27543054692810    0.08341024389912   12.61536214406939
C        15.30188319479123   -0.59862076910171   11.38468790506572
C        14.62669170471688    0.20196445506317   10.41987787989969
C        14.20526686320939    1.38644429892898   11.05610707448693
C        11.55935870799386    0.48143697943634   11.41828421831548
C        10.77486790188140    1.44423362696876   12.24465844173779
O        11.27362718863834    0.18417190495899   10.24973444017803
B        10.02895221372438    0.23594863274580    9.34829138845247
C         8.69520850097032    0.29615520681469   10.27711704437506
C         7.59462861555353    1.11153953237210   10.04366525246027
C         6.43873615728022    1.05555950242266   10.81802787672697
C         6.36121087974805    0.16185920156995   11.87944897218632
C         7.45006381276356   -0.65935109927186   12.15381827713759
C         8.58108608287779   -0.58053418995977   11.35388905230736
C        10.14311574243901   -1.21643610085332    8.59473731822380
C        11.37649144144185   -1.62317400425124    8.09723578780316
C        11.58511839657175   -2.85640353717203    7.49346170414108
C        10.52208969151197   -3.74024145033458    7.35481532753699
C         9.26885923013940   -3.36150793982925    7.82051471178848
C         9.10047116341856   -2.11976132086253    8.42652085329685
C        10.18605795489252    1.43626519334435    8.26196370107635
C        10.90486665901679    2.59917533578523    8.50438854048196
C        11.06032291103780    3.61269123317785    7.56558107817922
C        10.47236778439230    3.48534127027285    6.31444797638571
C         9.73988338050238    2.33752056489260    6.03175563334446
C         9.61292948086406    1.34366693777215    6.99573673028197
F         7.62777630585433    2.01395499342062    9.05280047248573
F         5.41221775317876    1.86538217165988   10.55317079997250
F         5.26586758918814    0.10315709208082   12.63601850257019
F         7.41005843523064   -1.50695254205335   13.18571113638702
F         9.61975392208226   -1.38992156596145   11.66089215134595
F        12.43840749622288   -0.80093509214962    8.19155778868508
F        12.80358737383948   -3.19117378002802    7.05234742349923
F        10.70263587960832   -4.93090920480198    6.78224319819147
F         8.23235383125266   -4.19268674306756    7.69308182185395
F         7.86478627956624   -1.81379961964643    8.84840306956711
F        11.49458831561883    2.78732265922599    9.70170619234276
F        11.77547486346803    4.70192627579458    7.87018523610041
F        10.61093011917822    4.44551481427116    5.40010442502644
F         9.16978341077205    2.19094488752653    4.83430930550130
F         8.89772902745720    0.26080297234459    6.66702014728827
H        14.48097678776673    2.09064692072047   13.14901959463894
H        15.77934834846836   -0.21607071494317   13.51906266781397
H        15.84154581078490   -1.50751282938738   11.17558006168250
H        14.58089867794431    0.00507532562651    9.36319250211315
H        13.76292864975171    2.24229296279457   10.57593949066229
H        10.02392937598044    1.97144041966659   11.65996834110829
H        11.46086512911657    2.16215141915630   12.68850696720774
H        10.29639471691963    0.91070956814432   13.06394658193139

