60
CSD_code = KAJMEO | q = 0 | S = 0 | Stoichiometry = C25H31ClN2Pd | MND = 5
Pd        3.55854372161299    3.57522569604964   -3.58255401368169
Cl        4.09006115646750    3.89343961221624   -5.79861399384889
N         1.47992555388748    1.46220942980343   -3.84646571222965
C         0.60165183548594    2.23315532678823   -3.03715083907069
N         3.27441742059388    0.79729591782996   -4.82126902029628
C         0.14932215089416    3.47633567542354   -3.48836478566624
C        -0.69773576928900    4.20454598998077   -2.66244430520312
H        -1.05401757394201    5.16724656359085   -3.00019225733712
C        -1.08847847220666    3.73259568925577   -1.41879625748439
C        -0.60934634087397    2.50123134542104   -0.99146695292206
H        -0.89345374884272    2.13140915615200   -0.01668654201586
C         0.23864089114388    1.74189767374168   -1.78127979193880
C         0.56971374847757    4.02407436489050   -4.81733298599456
H         1.60715100105053    4.40730161092289   -4.76306283434632
H         0.54898795954387    3.25399279334870   -5.58795412397138
H        -0.07880302672016    4.84322886677730   -5.11719918635197
C        -2.01855432924991    4.52504483867795   -0.55205664493419
H        -2.02132449161916    5.57326912709429   -0.83964040607230
H        -1.73303094451613    4.44594337533130    0.49466828355029
H        -3.03471895017165    4.14245209265403   -0.65142642790479
C         0.78508767957596    0.43663952233862   -1.28498538552678
H         0.61446939509774    0.33681761919658   -0.21637648067184
H         0.30645389520468   -0.40436955006210   -1.78603374470122
H         1.85600976595231    0.37759637801304   -1.47586911417123
C         2.76990991253549    1.78921088144660   -4.06621309248983
C         1.18257602380638    0.26292713203960   -4.44214006260555
H         0.20772136180283   -0.17670180916600   -4.39182551091548
C         2.31270301100915   -0.15284331990989   -5.05808344975603
H         2.51526976173662   -1.04455462886225   -5.61494309391506
C         4.59608212806731    0.74546693785100   -5.34409207054395
C         4.78491026198689    0.76572330759607   -6.72717071375705
C         6.07878644060970    0.66626693217629   -7.21604058724897
H         6.23447875616228    0.69128849662881   -8.28481156091143
C         7.17310041637550    0.56516397075845   -6.37183807174939
C         6.95815684758936    0.58399992267743   -5.00114584754248
H         7.80522613502310    0.53375989680664   -4.33150688415234
C         5.68209721577669    0.67692048901433   -4.46923839848823
C         3.63915152601543    0.99429982093291   -7.66272105185571
H         3.98815852573466    1.00674731649211   -8.69129002503378
H         3.20600516427898    1.96833634593543   -7.43163410091814
H         2.86288711002731    0.23786668805896   -7.56774693607736
C         8.56645119531152    0.46716159380301   -6.91432480285159
H         8.55711557328996    0.37242521605405   -7.99727832181005
H         9.08276554183809   -0.39342241787803   -6.49017800306249
H         9.13370170556463    1.35969009002487   -6.65101500089205
C         5.48117748909259    0.74216210285601   -2.98440852622314
H         4.71003641544878    0.04407444687311   -2.65721598622826
H         5.16064343570161    1.76169208292870   -2.71351171326713
H         6.40709488653475    0.51536843440650   -2.46193668282571
C         3.20143767959660    3.79490665151738   -1.52249824086516
H         3.37788723514584    3.03956252659002   -0.76264747853215
H         2.21141417302918    4.24629717103726   -1.46139876134384
C         4.28591002169219    4.61464913708876   -1.92014712078919
C         4.05864856957405    5.53743930507659   -2.94713625410594
H         4.89303783234451    6.12874845951275   -3.31446077656221
H         3.08467110263589    6.03306335729965   -3.01403834549094
C         5.70060488128508    4.30185017518036   -1.49831826198764
H         6.11466038828148    5.15516753212633   -0.95878687756467
H         5.73741602184295    3.43202734656389   -0.84252687136675
H         6.33373272567548    4.12047929303296   -2.37397699347700

