90
CSD_code = KAJNAN | q = 0 | S = 0 | Stoichiometry = C46H37ClO3P2Ru | MND = 6
Ru       10.90722087908500    8.95570785501741    9.78209410283791
Cl        8.62149555142136    9.32207619339233   10.10700780447222
P        11.73770792036729    9.79976262723763   11.70133647203649
P        11.04564450676011    6.72177583184142   10.08795803731323
O        12.99821057532639    8.72407129897674    9.33621325720980
O        10.48782561243840    8.86962923297190    7.69009930316274
O        10.91833251987447   10.77575924054617    8.65749078149517
C        10.51361411025831   10.12707648525817    7.65787108522383
C        10.09168633669040   10.84420709670870    6.42794701979573
C         9.64206889626441   10.12294878662507    5.32718838083004
H         9.61688246121189    9.04445771416459    5.38342577236895
C         9.23268792634199   10.79226521002501    4.18972789646613
H         8.88026650467183   10.23602123952750    3.33313452281380
C         9.26981435128033   12.17732336345661    4.14895924050082
H         8.94602455589866   12.69841802749421    3.25939742237723
C         9.71672445281500   12.89662997348973    5.24631283546302
H         9.74086853455261   13.97620404846376    5.21082521520483
C        10.12756190795623   12.23366847685199    6.38712025159221
H        10.47485272928100   12.77411119665496    7.25555474138275
C        11.17414267397164   11.41218019745600   12.32133015810401
C        10.37357301773840   12.18667836540735   11.48853977347516
H        10.08890475984944   11.80338661916850   10.51798460257304
C         9.93486410217342   13.42818091787595   11.91318975675186
H         9.30808861120737   14.02635589676985   11.26852918167460
C        10.29014393138857   13.89881146215173   13.16624359140919
H         9.94594053007697   14.86742901524109   13.49881102831094
C        11.07769392094728   13.12298948121835   14.00255847487374
H        11.34444258030255   13.48611609139572   14.98492507521734
C        11.51764271034915   11.87984777374606   13.58780475600597
H        12.11149513093905   11.26512891277739   14.25101586481945
C        11.92648401956625    8.87946503300624   13.25895604166309
C        10.72220327083715    8.56048215148865   13.88341416695401
H         9.79679175397108    8.85306850937220   13.40138803701359
C        10.72414283826738    7.88492195559951   15.08676958773990
H         9.79134531782541    7.64769759478420   15.57613842696340
C        11.92734722321424    7.50957975997581   15.66530965297142
H        11.93201704659918    6.98450272431498   16.60911707694105
C        13.12314547284930    7.79890853828587   15.03159905786138
H        14.05890264330761    7.49565357866702   15.47893709629118
C        13.12870064013459    8.48057907972916   13.82642223178187
H        14.06534563382170    8.70789129103881   13.33576314588712
C        11.30977419873686    5.85629637285617   11.66627285145867
C        10.17205573050112    5.58795943178488   12.42423828545928
H         9.20588112798217    5.88449091740168   12.03719336767802
C        10.28569862540270    4.95063710993356   13.64339132016794
H         9.40115434785628    4.73050903859194   14.22252761243081
C        11.53636226598470    4.59409873426605   14.12393040504104
H        11.62650804775207    4.08993667564397   15.07472984688332
C        12.67149478461283    4.89214254069964   13.39028547355826
H        13.64685105284005    4.62668981096642   13.77182226651644
C        12.56347831657969    5.52753808832637   12.16581564680089
H        13.45266197178852    5.75715579629083   11.59350369553757
C         9.85955294487760    5.61743083971759    9.26594695189201
C         8.94600997440780    6.18170025391630    8.38215290806823
H         8.94289091033966    7.25275952360951    8.23182189824588
C         8.03875009777713    5.37538356580829    7.71757479132613
H         7.32624006633212    5.81681540049010    7.03665826717223
C         8.03807525191612    4.00754585758541    7.93216495923832
H         7.32948957395588    3.37763986738301    7.41407913076019
C         8.93819604860549    3.44411453931644    8.82347322697915
H         8.92851983883069    2.37800938994130    9.00070627651688
C         9.84492978878520    4.24266235697295    9.49467154070956
H        10.52612223473478    3.80354622944456   10.21132769400786
C        12.62631791415544    6.38050868922591    9.20302434168958
C        13.08384108835884    5.12963880157576    8.80618998410528
H        12.45009270895960    4.26502985763996    8.92943210425911
C        14.35149868756590    4.99934944884456    8.26826045478302
H        14.70178081653350    4.02625285089030    7.95841952474636
C        15.19163230036742    6.09613129402378    8.13751654771428
H        16.18443901147345    5.95190663233090    7.74305728035532
C        14.75854156161761    7.36249918729344    8.49909275408089
C        13.46052147420409    7.47755041222359    8.99389061482161
C        15.55836987262586    8.65151198283703    8.38333138735325
C        17.05557031507789    8.39637905209721    8.22472141360196
H        17.24470025592782    7.82244833803555    7.32137435948904
H        17.44975995039571    7.85192643500247    9.08016945270104
H        17.58844091604781    9.33866843892137    8.12793010611035
C        15.04418725171866    9.42482304153399    7.15219337197876
H        15.21787769564438    8.84426156570229    6.24848154361050
H        15.56486913646844   10.37634473659726    7.06597155375948
H        13.97750158859853    9.62648114372784    7.22718626583911
C        15.23725233536651    9.47256095052176    9.62315479561926
C        16.13116332867958   10.24869849311128   10.34502040157147
H        17.16785740149767   10.29821066183718   10.05356806168819
C        15.70352510346297   10.98225053801951   11.44288362131793
H        16.41260463307463   11.59939238079905   11.97401471162668
C        14.39105975650182   10.92123346394954   11.87605908406958
H        14.07202942999165   11.47670157296413   12.74522330176521
C        13.47522364256162   10.12911414342493   11.19346216617531
C        13.91069646095777    9.46079469761399   10.05027145100955

