31
CSD_code = KAJNAK | q = 0 | S = 0 | Stoichiometry = C15H9F3FeO3 | MND = 8
Fe        4.52981980834118    3.23327562834205    2.65354480867889
F         6.59563141969876   -0.84509516448527   -3.27266135990600
F         6.54566276804133    1.06176518917638   -4.26704804455300
F         8.07355694655728    0.64547386236046   -2.81195231845308
O         2.29239679054979    2.59947725398749    1.11005390565554
O         2.15242053326792    4.01651000735485    4.11356901538370
O         3.97066076178610    0.65612961989089    3.84196962077487
C         4.33846357183427    1.95858651634722    0.10678611003738
C         4.21468188356687    2.50652845046059   -1.16964128780279
C         4.99685424660678    2.04292325355826   -2.21039197662404
C         5.89286197857317    1.00785517291712   -1.98128346749010
C         6.00664133746397    0.43483238090798   -0.71890185757786
C         5.23779937360603    0.91560353216296    0.32203138431314
C         3.48735888679340    2.51440467377356    1.19931938727181
C         3.08037381259222    3.73968170697379    3.51101058682934
C         4.25273783562627    1.65646409450321    3.35646724345323
C         6.76394754180447    0.47562518939617   -3.08368935211788
C         6.71482164755242    3.47075338116750    1.82675589225939
C         6.72446261171243    3.70594110417898    3.22945166024456
C         5.92424381228578    4.83067771805494    3.48793185723588
C         5.40431018663570    5.29116509874399    2.24156800316527
C         5.94383791647545    4.48239158558338    1.21735610288303
H         3.49969020568239    3.29764458504592   -1.33541173093552
H         4.90615905457794    2.47163897484967   -3.19658936909467
H         6.69632313808832   -0.38078913734105   -0.56211142779574
H         5.31826429721372    0.47303624852675    1.30353528881244
H         7.32972539825262    2.75328750788082    1.30903927086921
H         7.32551186525701    3.17574580865758    3.94863983357098
H         5.81321535025639    5.32857413250598    4.43690147221457
H         4.86748103539578    6.21398326709811    2.09425822046796
H         5.83028398390432    4.64150835742074    0.15809252822898

