38
CSD_code = KAJQIW | q = 0 | S = 0 | Stoichiometry = C15H16MoN2O3S | MND = 6
Mo        7.63386938789290    1.93117278742589    3.11093356242020
S         9.24403780601349    3.41668976513264    2.09596588259090
O         6.63602367160332    1.84060246401235    1.81071133222750
O         7.20588115785559    2.98985832056734    4.29081966659422
O         7.38994300542729    0.25002969590043    4.06236057591678
N         9.62881771304533    1.66450037069984    4.32844185929229
N         8.97209922821474    0.37950870796725    2.07079439376843
C        10.02603545368543    4.02536910369140    3.64233084797171
C         9.98758020588975    3.00694709104749    4.79250691271103
C         9.22164592427112    0.80062380193119    5.41764676248338
C         9.95086012091175    0.62833298738084    6.58117970039761
C         9.50078488677418   -0.23025511962932    7.57813305565562
C         8.31455903850373   -0.92415342051947    7.37059302262056
C         7.58518141794066   -0.77877234642336    6.20701588669483
C         8.02660578504278    0.09302597458284    5.20603267269667
C        10.29204420051517   -0.39080265918753    8.84190330731179
C        10.72047863086973    1.04310022889317    3.57001302675016
C        10.16253017109530    0.06022354142711    2.57746611806054
C        10.85555453936569   -1.07249930310486    2.17080243141485
C        10.29013445735946   -1.89049760160799    1.20657069098830
C         9.05568621482056   -1.54412057059250    0.67809523323287
C         8.42943788348158   -0.39993372434778    1.14326704458022
H        11.04945764235067    4.29104842271412    3.37194853128323
H         9.49134084621082    4.93158784772106    3.92694837584547
H        10.96295358038007    2.99585606476585    5.30132629936081
H         9.21598460671771    3.30327665020293    5.50785437132474
H        10.87211547259870    1.17331244691582    6.73524623809255
H         7.95221613898579   -1.59254124374082    8.13788291373949
H         6.66130655106538   -1.31572096993217    6.05407770497073
H         9.77264659726288   -1.03817470646505    9.54267606779219
H        11.26900197890191   -0.82493776421611    8.63007309895289
H        10.45305456101859    0.57584467154338    9.31657540639060
H        11.44421366228491    0.55409302425747    4.23794703462712
H        11.23802764424451    1.82334356693674    2.99539493628974
H        11.81642322709172   -1.30391576741268    2.60393828635339
H        10.80435265695290   -2.77985431480410    0.87479889231434
H         8.58340196066776   -2.15039439692189   -0.07767205047975
H         7.46571197268576   -0.07237362681064    0.77429990676225

