31
CSD_code = KAJQOC | q = 0 | S = 0 | Stoichiometry = C10H14N2O2S2W | MND = 6
W         4.76214404230917    1.29527446174844    8.78001806499679
S         6.83983778091051    0.05097136919720    9.28875766291327
S         2.28457582940933    1.52358357351584    9.05585559336702
O         4.78591435718753    1.23918699599964    7.09532645486397
O         5.19833681207660    2.76891802770543    9.46726887159073
N         4.17105431219381   -0.99904243297357    8.57864251929305
N         4.24944183753837    0.39132281888875   10.83365319399636
C         5.17792393792985   -1.52364011503388    7.63742686542348
C         6.60451556924461   -1.40492243314104    8.17698305185234
C         2.85236567911588   -0.96342429957249    7.92427648179265
C         1.81472142604223   -0.23715930136635    8.76527062819241
C         4.12826239181759   -1.78661299842124    9.82038823085753
C         3.89768046329139   -0.88843282143650   11.01279127740493
C         3.41164348306128   -1.36062148734876   12.22391723208719
C         3.30540458840456   -0.48257938788145   13.28942201306481
C         3.69718709561401    0.83787668559903   13.10821299441495
C         4.15786008621362    1.23398202343188   11.86734366424923
H         4.95774559266233   -2.57413971333395    7.38551458396943
H         5.10338791599246   -0.91287389720070    6.73043150337385
H         6.90314642598591   -2.28020147679013    8.75789417003692
H         7.30252984716781   -1.29759458460357    7.34649312998993
H         2.50794555364823   -1.98996208878427    7.70614274633636
H         2.96458750734920   -0.41663205517778    6.97935958864680
H         1.66505305729139   -0.71169358438911    9.73955150982650
H         0.85925529494171   -0.22401668377998    8.24043507147983
H         5.10188690329027   -2.26740932032566    9.97133471904227
H         3.36572756286438   -2.57706433047879    9.77068419909539
H         3.12744448166713   -2.39690519229903   12.32432072314702
H         2.92775319708651   -0.82188422487107   14.24153157934264
H         3.63987224346676    1.54968609076697   13.91512398379239
H         4.46209472422551    2.25511038235577   11.65622769155988

