106
CSD_code = KAJSIZ | q = 0 | S = 0 | Stoichiometry = C50H49Cl2O2PPdS | MND = 4
Pd        5.87701261658815    8.21735807183282    4.12586907740459
Cl        8.10613494715457    8.71080633482996    4.13156665778879
S         6.46739142309731    6.03373711495902    4.68461129585380
O         3.40942822703569    6.19299731117338    3.58115943451395
C         4.35791513925204    5.32236238708130    2.99063607137180
H         4.94921558195271    5.85123415925742    2.22332582853744
Cl        5.22492320905443   10.37005713955799    3.93118412161723
C         5.30309442215951    4.74561861498473    4.05124403948519
H         4.69622197911613    4.39674527836710    4.88601273639719
O         2.85549632019378    3.51379472689903    3.29312765107315
C         2.21495019219514    8.40535938534006    4.27243006069121
P         3.75862802945166    7.78477069349397    3.57489554711416
C         1.84869543283333    9.72134075313879    4.00883443927657
H         2.48695101748967   10.33396453194450    3.38881146173025
C         0.68626015123119   10.23057285028523    4.55728698422001
H         0.39762040412647   11.25021540552960    4.35159419843394
C        -0.10529053341913    9.43618829757868    5.37244329646215
H        -1.01354459955894    9.83655845254138    5.79859233682861
C         0.27020008745144    8.13136420497153    5.64802996179310
H        -0.34364173560041    7.51577443534733    6.29014694553461
C         1.43340447497824    7.61491534481042    5.10602772547378
H         1.73315788614121    6.59923021870771    5.31178655706866
C         3.64616329248357    8.16515140878473    1.79083902725269
C         4.80607516611596    8.49390733490082    1.09467173997947
H         5.76016296345576    8.60788894758755    1.62934108686715
C         4.74770394411928    8.70520090034658   -0.27240252231097
H         5.64230178605681    8.97293214555130   -0.81458890418550
C         3.54172033690455    8.57590231566242   -0.94263163272062
H         3.49841495469143    8.74513125787788   -2.00845626978031
C         2.39062079734859    8.23044462497120   -0.25128808097132
H         1.45308198119892    8.12536878558570   -0.77730614482176
C         2.43960211101011    8.02324979482229    1.11483042635997
H         1.54976829748305    7.74969424365099    1.66550460182289
C         3.55303791244828    4.21699836197253    2.29870211029016
H         2.86980828113206    4.69982493459695    1.59058662712847
H         4.23036502798908    3.55609418446364    1.73920810262290
C         1.58827430620275    2.94229337559571    2.93197655244514
C         0.71723765733918    4.03987528560558    2.33996982958826
C         0.15314975192801    4.98010080340466    3.19519098039166
H         0.27570735903466    4.86505134538130    4.26115685973779
C        -0.56084107615209    6.05274106181490    2.69397149972944
H        -0.99094474171958    6.77473260346648    3.37257692470830
C        -0.71302369272759    6.20747828449099    1.32606459281644
H        -1.27084604110970    7.04499005010679    0.93345069511107
C        -0.13728551730400    5.28933565779825    0.46559974355531
H        -0.23840389244519    5.40827653996892   -0.60318029114096
C         0.58187659403262    4.21734543642700    0.96730458578318
H         1.03763323422982    3.51580665036509    0.28286994032947
C         1.75925083853669    1.72052879507239    2.03842591052259
C         0.68318725439590    1.19261083138293    1.33352938909878
H        -0.28058566866954    1.67759289587956    1.37441669805205
C         0.83640685214742    0.04606063124352    0.57582695405492
H        -0.00755344476616   -0.34973829354429    0.03025895344680
C         2.06255262537666   -0.59463607305961    0.51739596262217
H         2.18043114480871   -1.48801448623199   -0.07742073792782
C         3.13087542010642   -0.08852360312913    1.23583652719263
H         4.08907240695012   -0.58646746602642    1.20970658817451
C         2.97766165412650    1.05564707652309    1.99836495073473
H         3.81065839383427    1.42979224131010    2.57377257613296
C         0.98922625962156    2.39051710004971    4.22067934100426
C        -0.37659444356258    2.15511809553368    4.32216869586212
H        -1.03096140464173    2.40902523783433    3.50164407752774
C        -0.90913772356413    1.60895404382970    5.47584000509114
H        -1.97267750509472    1.43328472614135    5.54193134664843
C        -0.08621273908071    1.29053391077874    6.54277496606973
H        -0.50397663808183    0.86594087635420    7.44347994014915
C         1.27501311838059    1.51901741399871    6.44612151112367
H         1.92493614475033    1.27117965170455    7.27300482644510
C         1.80909367838723    2.05971597374196    5.29000920979609
H         2.86896263390094    2.23673302067228    5.20903773130892
C         6.13749475435940    3.62802800464649    3.49802156251442
C         7.09863979378711    3.88957983352671    2.52765722058386
H         7.26052913606073    4.90675123656789    2.20012167447830
C         7.85890394653201    2.86182250235623    2.00190026114772
H         8.60494647748434    3.07668828943577    1.25212331376075
C         7.66704336852397    1.56120488353023    2.43920756103394
H         8.25956932283559    0.75871299350957    2.02656310862574
C         6.72172437897004    1.29537547369664    3.41414399581947
H         6.57334995824758    0.28499988918397    3.76565654810571
C         5.96400643210958    2.32523776360078    3.94499493052168
H         5.22908866595863    2.11357926343092    4.70822380729697
C         6.03267156945150    6.19443107229049    6.49013222188303
C         6.87046972761844    7.36073814401831    7.01736179548220
H         7.92930063380025    7.18352696273088    6.81363801030765
H         6.57957136473253    8.30127225632313    6.50529542535906
C         6.62617118194871    7.50959268656331    8.51980372457121
H         7.23509419595595    8.33625201363137    8.89770323907813
C         7.01378114060324    6.21756413975308    9.23819264027146
H         6.84938700154541    6.32625694114331   10.31216125884797
H         8.07358259896891    6.00781193970133    9.08074180327699
C         6.16971258076795    5.06431818965504    8.69833769891931
H         6.44516940727566    4.13551497155033    9.20935641338276
C         6.42841529894860    4.90447298998709    7.19764489548902
H         7.48498898849303    4.69686807496203    7.01594081564110
H         5.85159510028464    4.06073898447178    6.81154314378994
C         5.14707209486549    7.81017741288296    8.75762764103950
H         4.95716165833299    7.94060551527126    9.82478912622991
H         4.87088503472447    8.73761804631337    8.24993179683143
C         4.30752294326116    6.65446164079695    8.21624007483138
H         3.24441379455230    6.86492785730278    8.37707427892603
C         4.55853975460461    6.50711694785572    6.71241800775044
H         3.91815581080219    5.71655594180910    6.31426970456680
H         4.29779161224592    7.45391060853262    6.21005281673531
C         4.68758361299288    5.35721766875152    8.93027987715815
H         4.49212980271420    5.45376160345477   10.00004700955174
H         4.07902253112973    4.53105260885068    8.55351866379928

