35
CSD_code = KAJWUQ | q = 0 | S = 0 | Stoichiometry = C10H18O2PdS4 | MND = 4
Pd        4.50814771870259    4.77440533748973    4.98806146200780
S         5.11300910966023    3.67598639448017    3.01556610584891
S         2.86153728889169    3.14246054972285    4.75007588097128
O         3.39215126608095    1.80847435557440    2.51139696104480
C         3.73157374152001    2.76006810291588    3.34667508738668
C         2.22301499645262    1.03902258818053    2.78952557734262
H         1.35926917857248    1.71161962144415    2.85685107645504
H         2.34411010485438    0.54326482333096    3.76036146696100
C         2.04554671246190    0.02386803762131    1.67020688182887
H         2.93787088277168   -0.60202253547915    1.61936930561342
H         1.95843778664261    0.55797700654297    0.72273222524025
C         0.81078931838379   -0.84535530799055    1.89441434433888
H        -0.07284028854070   -0.20760330389994    1.96372263210554
H         0.91032544840944   -1.37735082640464    2.84279737306939
C         0.62604729708846   -1.84961848584812    0.76376159293994
H        -0.25154312375268   -2.46582203469068    0.94169716518133
H         1.49299329187819   -2.50139681808852    0.68637732618284
H         0.49818804216234   -1.33574043353002   -0.18595918058006
S         3.90389881563025    5.87290554026073    6.96144868724705
S         6.15551199356234    6.40621737415452    5.22728936640172
O         5.62561352198618    7.73947204986489    7.46661214006721
C         5.28717146279507    6.78676428159492    6.63223352233182
C         6.79445641855251    8.50924999055873    7.18817625232356
H         7.65831550644808    7.83677768903727    7.12110715627501
H         6.67333744054207    9.00472357653323    6.21716268737432
C         6.97178001438909    9.52460358585384    8.30734795087957
H         6.07939604620471   10.15040907030528    8.35813083225116
H         7.05895506649407    8.99059283802550    9.25487764256456
C         8.20651203244828   10.39384524931836    8.08307378003218
H         9.09015123831493    9.75610843777998    8.01372365414056
H         8.10692139829426   10.92585054904371    7.13470377849671
C         8.39129860910582   11.39804814366352    9.21376710143563
H         9.26884880507020   12.01429680934009    9.03579443115625
H         7.52433202079980   12.04978874769062    9.29127861772536
H         8.51927083712235   10.88410899560340   10.16343911535921

