29
CSD_code = KAJWIE | q = 0 | S = 0 | Stoichiometry = C8H14O2PdS4 | MND = 4
Pd        7.61520180361811    7.63947302856723    4.36979435843946
S         7.17441086714497    7.37616573902367    6.65084799387233
S         6.96938532610711    5.40602309393257    4.54536301611006
S         8.03103562787271    7.90533868159751    2.08425011298714
S         8.23186214591110    9.87850090380742    4.18808696844731
O         6.43459124465188    4.93612073074125    7.10772666227951
O         8.56921563955017   10.39218334179268    1.60076181693694
C         6.81290368984829    5.79111976388644    6.18877044998174
C         6.13384080785052    3.59832866146607    6.71157167581043
H         7.01380442489812    3.16379786735175    6.22233105149717
H         5.31366002530747    3.61720082315859    5.98369142822979
C         5.74783667203280    2.80683630193005    7.95294698019778
H         4.89200704180558    3.29126281267472    8.42475104550720
H         6.57904486648777    2.83381299335069    8.65854915813264
C         5.40715330575753    1.36664506279351    7.59579043540689
H         5.13606422695987    0.81337440061503    8.49034626905281
H         4.57086270503687    1.33148301014095    6.90196590540202
H         6.25881929137898    0.87517104077790    7.13173068387203
C         8.30727406962810    9.51094655400875    2.53519838889263
C         8.78619464238925   11.74999729607098    1.98394172624195
H         9.65927508055614   11.80004272421173    2.64569564863386
H         7.91336403427189   12.10721500021202    2.54379876892568
C         9.00358887952924   12.57275893695934    0.72188738363674
H         8.13184544860421   12.45870100492790    0.07626844065575
H         9.86888127316197   12.17585431748950    0.18938003417594
C         9.21990028942090   14.04178059504016    1.05830766102426
H         9.37284645841107   14.61520957308947    0.14836106918898
H         8.35553282269622   14.44689656174313    1.57920389564884
H        10.09279728911116   14.16525917863907    1.69458097081196

