90
CSD_code = KAJXAU | q = 0 | S = 0 | Stoichiometry = C36H45BN6PRh | MND = 7
Rh       13.80929090353272   21.62245677442368    4.29313406520617
P        11.85975628557830   21.06652906382254    3.34533953485950
B        16.01019287636356   21.07895490035713    2.05914643193729
H        14.90474533588937   20.81592756203509    2.55921939146184
N        16.73508660802993   21.88854440005320    3.13311094802088
N        16.14002364440223   22.04521555601197    4.33422522284790
N        16.75653782040705   19.82802273479043    1.70034179702527
N        17.97420610226949   19.47820832278054    2.23717499970218
H        18.27581797840294   19.95314610417618    3.07700797378579
N        15.70343638319161   21.95537803073986    0.85206943769740
N        14.82907765124842   22.96998955804821    1.06834081207010
H        14.21740839869207   22.88687948424893    1.89598234899672
C        11.48922934009552   20.48574958441871    1.61482976702940
H        12.11287361525615   19.58784520966848    1.47798425526308
C        10.08388921505501   20.13612452152748    1.25004473421721
H         9.27173032673459   20.48178884887266    1.87326294320638
C         9.84059969286449   19.38169098886375    0.16825075221770
H         8.83566865564153   19.01868311544823   -0.01299248250755
C        10.81801182122108   19.03853063869687   -0.82197453509797
H        10.62144524846551   18.14249640421626   -1.39822627749417
C        11.84678207262147   19.83190807070434   -1.20765039393170
H        12.42331696272059   19.53464438639285   -2.07546274033927
C        12.11867604055665   21.13528010916602   -0.67790126016858
H        12.51878918614359   21.86115432053432   -1.37617277372314
C        11.88203401821800   21.49927545277101    0.59088011938366
H        11.95839748880594   22.52911025365155    0.90823342804321
C        14.12966111633903   19.52638635790605    4.81550136586182
H        15.20401569849333   19.32957987574908    4.83430442647987
C        13.62280803798087   20.17577006844691    5.98099112731896
H        14.35698951839796   20.42698572369428    6.74617506020676
C        12.27298902661017   20.06945009415943    6.45451169999715
H        12.13776450890448   20.25188686226800    7.51595372672595
C        11.16834587448067   19.80279213327225    5.73206315316159
H        10.21919960775301   19.69612633483575    6.23971821806009
C        11.16290842231396   19.59244190454361    4.25305543949318
H        10.14367790036363   19.39861595790391    3.90025424255843
C        12.06413946457271   18.44300260060712    3.91712751413592
H        11.61059119272952   17.56648875343226    3.47197319410812
C        13.38445115729269   18.48362201780945    4.12638269815915
H        13.98027060295681   17.63804656771537    3.79371460936317
C        13.33028297442359   23.71361547536307    4.04572998629560
H        14.24535518213271   24.31179905052503    3.97485241983822
C        12.98061011544273   23.33551286829367    5.39029192076786
H        13.67142129848775   23.65548906630847    6.16857620885728
C        11.63961489716432   23.10872074097508    5.84883881963004
H        11.48561624391485   23.25218360679795    6.91371521716033
C        10.57472618824427   22.70712215838528    5.12886379680847
H         9.60947441252203   22.62945024761887    5.61022786206442
C        10.61803080608881   22.42054898985514    3.65803308143401
H         9.62756734262887   22.11830528264974    3.30211684331109
C        11.06977941235193   23.67068436578133    2.96832378581230
H        10.35342483349896   24.16975900944530    2.32683310294640
C        12.29356331107327   24.18347143412654    3.13029604818492
H        12.54663952883830   25.07967552882065    2.57119306420515
C        17.92951591552430   22.52696264763914    3.12873656310781
C        18.10476054338160   23.09065313334589    4.37600180609265
H        18.94305889159259   23.66423222309318    4.71772148462879
C        16.94935085525814   22.75940080718332    5.09979684393983
C        18.81468353316233   22.61759500982508    1.93534913607728
H        19.71239791658932   23.17363363066283    2.19401968759773
H        19.10771648135081   21.63232808481769    1.57482056249168
H        18.30488318727514   23.13974244197644    1.12621573429189
C        16.61794425126629   23.10034624683982    6.50850426277984
H        15.70000520662346   22.59081656869937    6.79250595234446
H        17.42298451015420   22.79301482782445    7.17511937003489
H        16.47785554262331   24.17551476703464    6.61942775314561
C        16.29358655633038   18.74848170952624    1.01375756028043
C        17.21588661458852   17.71094278123167    1.14450885073331
H        17.12832142219319   16.73488019713508    0.71245605858338
C        18.23883776056815   18.15614475646182    1.95417620033092
C        14.93796735299896   18.70691587613119    0.40993179097338
H        14.69660722684981   19.62274734616444   -0.12296265429193
H        14.85742753757365   17.86124276751438   -0.26789050560128
H        14.19482795543429   18.58916727339552    1.20042233841368
C        19.44967315393557   17.47970161522922    2.47732937873889
H        20.35622087436100   17.98749264165683    2.14416780695389
H        19.45101626956213   17.47567071247045    3.56837947603750
H        19.47704669671723   16.45213045713544    2.12596516320608
C        16.11045125812112   22.02461530842035   -0.43582757055363
C        15.44945037359314   23.09480636069233   -1.03802758190118
H        15.55956330486577   23.41248618546831   -2.05511934072663
C        14.63246320721637   23.66650949928563   -0.08050602011016
C        17.12307400402600   21.12691485023079   -1.04431997058296
H        17.37245821534585   21.48926421195054   -2.03834498933203
H        18.02862073161256   21.09833684861184   -0.44201713069226
H        16.75816494556944   20.10291621710144   -1.12699279784179
C        13.74023162712564   24.84660988853494   -0.16741635000807
H        12.71508974799112   24.57728297153673    0.08448370683295
H        14.06332436615328   25.62285716176778    0.52583833074000
H        13.75978961405016   25.24957449966833   -1.17612803937660

