41
CSD_code = KAJXOL | q = 0 | S = 0 | Stoichiometry = C12H22O2PdS4 | MND = 4
Pd        6.52263404382721    4.52757879304094    4.60562931739864
S         6.69314682306332    3.34950716159538    2.59279675653178
S         4.57637615082223    3.24471149142651    4.55932818935897
O         4.61584707350345    1.83001532263437    2.30742353613380
C         5.20860860264322    2.70567167793776    3.08195371386928
C         3.36156013830589    1.28877649216871    2.72075745424527
H         2.64500099852304    2.10824630057796    2.85382495482991
H         3.48968661644682    0.78778862642545    3.68786131949333
C         2.89054266442213    0.31304370742770    1.65241410805117
H         3.64427756700710   -0.46654534560390    1.53249329556500
H         2.80741874780052    0.84521904491742    0.70365583557495
C         1.54726113713259   -0.31108101109779    2.02047007044506
H         0.80356250170989    0.47821530814756    2.14958708418766
H         1.64028228142032   -0.83655293619685    2.97332368343436
C         1.06601860787846   -1.28795206730370    0.94975854385766
H         0.97217922081065   -0.76176837368434   -0.00235270616459
H         1.81031690149509   -2.07622650541460    0.82029330360784
C        -0.27405548947039   -1.91216336189417    1.31809527636395
H        -0.59686723182729   -2.60604430547535    0.54587824650482
H        -1.03546194178536   -1.14350302535513    1.42901233126515
H        -0.19723555488469   -2.45511554834708    2.25746328622876
S         6.34701921064608    5.71019541275405    6.61380488159025
S         8.46410776270814    5.81498832783005    4.64717264277068
O         8.42544006175011    7.22792638699335    6.90012095704312
C         7.83294481909536    6.35193508548032    6.12577333759039
C         9.67971077679914    7.76928945929704    6.48685028267357
H        10.39629487404488    6.94983213500833    6.35384558148597
H         9.55162152541980    8.27024206468759    5.51972820973304
C        10.15072523311884    8.74507731053578    7.55517413418242
H         9.39702509987083    9.52470438545368    7.67512700028624
H        10.23387430967810    8.21291711817024    8.50394933642345
C        11.49402123482913    9.36921105438463    7.18713823586605
H        12.23771108837300    8.57990191578268    7.05797593864213
H        11.40102072028579    9.89475256142208    6.23431628382697
C        11.97532050964670   10.34603526500531    8.25787260085126
H        12.06921332311102    9.81977502946528    9.20994454942661
H        11.23101749567819   11.13430743047444    8.38742243928215
C        13.31539328423959   10.97025127372917    7.88955111180043
H        13.63818683428008   11.66414332540694    8.66176931217879
H        14.07681641016842   10.20160716944110    7.77860849736485
H        13.23853556741240   11.51318584275091    6.95018706619898

