47
CSD_code = KAJXIF | q = 0 | S = 0 | Stoichiometry = C14H26O2PdS4 | MND = 4
Pd        1.77404358491235    3.24786433730832    5.87030169008696
S         0.98990823509012    1.56268715680324    4.45370088975780
S         3.56166455484682    1.75856888676060    5.76087234531692
O         2.77539897754325   -0.29928406848857    4.26725119883680
C         2.49713705387065    0.86947968422995    4.78331971815565
C         4.05292485426152   -0.88618968612887    4.52044068808832
H         4.05156234786420   -1.26477120592677    5.54941051145353
H         4.82686441157986   -0.11592597493167    4.44469769539275
C         4.27491465035389   -2.02319167378578    3.53117886471607
H         3.32349990120945   -2.54645713940411    3.42016388865829
H         4.99209198758498   -2.71785594501542    3.97132492546795
C         4.78454606538435   -1.60453061983873    2.13848311192954
C         6.22457437955991   -1.09329263223335    2.22532982763309
H         6.59290857342143   -0.84861026726665    1.23198430822294
H         6.87639141315121   -1.85141489101612    2.65394880092843
H         6.29392109805164   -0.19652232405597    2.83588358423791
C         4.75495146632390   -2.84742094946825    1.24305766171816
H         5.14941650136242   -2.61419504368849    0.25717657711800
H         3.73711928185824   -3.21157355259354    1.12528901513676
H         5.35795845341881   -3.64468362915404    1.67195872761767
C         3.88941421199322   -0.52589207159380    1.52690084187136
H         4.17175029475916   -0.35043097707331    0.49123513098513
H         3.98310505397305    0.41574302896134    2.06158078016723
H         2.84651007910198   -0.83165626283411    1.55226713709562
S         2.55794147282061    4.93028839933397    7.29001144738757
S        -0.01580571840580    4.73484487508024    5.98607408376339
O         0.76045368762725    6.77771915008594    7.50435085207325
C         1.04522753608774    5.61737914501209    6.97301963069118
C        -0.52228750609118    7.35744076162370    7.26136161447221
H        -0.53879138717920    7.71931034411619    6.22647269672592
H        -1.29270311164089    6.58633446393472    7.36156875034507
C        -0.73132381715839    8.50952613474909    8.23583019262899
H         0.21994076500535    9.03782909440902    8.32134391665429
H        -1.45874824508388    9.19436273746713    7.79709803533636
C        -1.21455381125000    8.11248015736185    9.64417694690740
C        -2.65460431285482    7.59661216906155    9.59164554717887
H        -3.00408804835444    7.36661794580840   10.59525579127559
H        -3.31612376273295    8.34648092627736    9.16332476812853
H        -2.73278312716540    6.69030428453534    8.99640080817275
C        -1.17193081812585    9.36985677134811   10.51865590905440
H        -1.54749048410568    9.15162887309808   11.51529518684452
H        -0.15307442976502    9.73835403644453   10.61172368987224
H        -1.78492701312564   10.15863060390344   10.08816842229089
C        -0.30568729301275    7.04605237287486   10.25684974421254
H        -0.56999033693001    6.88558763658303   11.29967884698748
H        -0.40500960417509    6.09617428788442    9.73806210189895
H         0.73558193414437    7.35464064942806   10.20917309650481

