47
CSD_code = KAJYEC | q = 0 | S = 0 | Stoichiometry = C14H26O2PdS4 | MND = 4
Pd        2.58564945045850   -1.41134691732411    4.98176935139819
S         2.86088861141217   -0.10218078356158    6.89731352115069
S         0.63387688829368   -0.13591451044621    5.05269152621961
O         0.79935495806973    1.43214517813127    7.19587228523019
C         1.34737967628106    0.50397016291082    6.45059602492256
C        -0.47827744914252    1.95080028733697    6.82663000288254
H        -1.20360697340211    1.12895440837618    6.79528482700819
H        -0.41216977631380    2.38593255477810    5.82222191937402
C        -0.87037501651331    2.99718803101178    7.85964905437408
H        -0.10374917661595    3.77332022043441    7.87752707196091
H        -0.88934699534668    2.52525749629137    8.84319581695927
C        -2.23119873398916    3.61726148368087    7.55441346971000
H        -2.99152734353529    2.83362594933955    7.53059949493768
H        -2.20612094788185    4.08360420992840    6.56718787702973
C        -2.61157425580691    4.66242606455099    8.60092819527630
H        -2.63140895918926    4.19344345350978    9.58710905801830
H        -1.84913422765469    5.44412982900847    8.62275330816103
C        -3.97187361408789    5.29588651942702    8.31939807918585
H        -4.73539490402231    4.51534067129893    8.29394613225230
H        -3.95238488225371    5.77181721241914    7.33657668477613
C        -4.33956785778131    6.33007188631381    9.37633033147021
H        -5.30938109882840    6.77134095173475    9.16002895630946
H        -3.59900342358819    7.12631037404105    9.40483697628295
H        -4.38393593904995    5.86978665021167   10.36092784297810
S         2.31080822939092   -2.71994339744801    3.06535495910517
S         4.53770299213966   -2.68648706852029    4.90996099516377
O         4.37195214548529   -4.25495713217004    2.76708016191606
C         3.82390180409885   -3.32683602182636    3.51242111357439
C         5.64962260645090   -4.77353476919197    3.13630093265649
H         6.37492662149976   -3.95166079068863    3.16765475753191
H         5.58352646470985   -5.20867522484113    4.14070042818459
C         6.04175249538002   -5.81989693724473    2.10327789730765
H         5.27513898815997   -6.59604095031071    2.08537099453345
H         6.06073493312776   -5.34794800980190    1.11973999715327
C         7.40256043455938   -6.43998038743282    2.40855425413829
H         8.16291269700235   -5.65636762487495    2.43235193083218
H         7.37745593020432   -6.90629170290712    3.39579461774629
C         7.78290276574041   -7.48520196980197    1.36208705404263
H         7.80276529246598   -7.01626040082295    0.37588830521389
H         7.02042573103614   -8.26687012494015    1.34029143238068
C         9.14317236171773   -8.11871298530298    1.64364050688648
H         9.90671288232748   -7.33818817676988    1.66911579692709
H         9.12365587903767   -8.59465755117142    2.62645397257168
C         9.51085769407386   -9.15288840381067    0.58669564117407
H        10.48064780072962   -9.59419916835177    0.80301271758387
H         8.77026860945027   -9.94910278506956    0.55814760678889
H         9.55527663170067   -8.69256980010360   -0.39788388128334

