94
CSD_code = KAJYEA | q = 0 | S = 0 | Stoichiometry = C50H40ClIrP2 | MND = 5
Ir       13.22692565455744   -4.28434315897920    4.31081807678871
Cl       13.71879791689309   -6.26318574721076    3.01644179689481
P        12.92590054389732   -5.69969971257060    6.09067717670090
C        14.17257649587191   -2.87510966002417    5.42873774759162
H        15.26148658969611   -2.88415080268689    5.52132662619339
P        13.45323015661461   -3.02437609775276    2.40345121195559
C        13.46775852085419   -1.93543532064181    6.07936515509779
C        12.03447697148623   -2.04070752088398    5.85415306064835
C        11.71041532162664   -3.10960037032774    4.99701107085370
C        10.38746075912194   -3.31875551097281    4.64975197888804
H        10.11056175703545   -4.13027401522219    3.98773271531083
C         9.39357156078852   -2.48179441771582    5.14277311926337
H         8.36276120054788   -2.65525326314889    4.86690914474263
C         9.72018338747615   -1.42500117783377    5.97566944660800
H         8.94180983129905   -0.77250490622555    6.34549340768558
C        11.03908647235938   -1.19643936190932    6.32819468115270
H        11.29740106043268   -0.35872919397739    6.95971591363619
C        14.07650539981393   -0.89273399502930    6.91577641402577
C        13.63202227534121   -0.66596093057571    8.21556674981424
H        12.83882165077047   -1.27914671491836    8.61608064646482
C        14.21865277121152    0.31327913397394    8.99581455602321
H        13.86821196696549    0.47747387356123   10.00508546524214
C        15.25303058922699    1.08304216356589    8.48990457761574
H        15.70613662929522    1.85147010095881    9.09938816182452
C        15.70527172847150    0.86037035607305    7.19983106490210
H        16.51311325357399    1.45722975974732    6.80060727613548
C        15.12498355346655   -0.12242375662012    6.41985306868323
H        15.46779438010470   -0.29229658579966    5.40968643481033
C        11.41520110184958   -6.71377551069351    6.07142098659622
C        10.79459610382064   -6.96628410733322    4.85398385566905
H        11.22244264724582   -6.55859703128565    3.94956951497698
C         9.65629792112171   -7.75035707961151    4.79960288997447
H         9.17917739421418   -7.94421081290090    3.84984841576815
C         9.13064868079830   -8.28784146231624    5.96240741267764
H         8.24166662479291   -8.90028901473680    5.92245338707424
C         9.74735623265758   -8.04264540143185    7.17947046728646
H         9.33995279444109   -8.46554263140834    8.08657460963228
C        10.88526866060491   -7.25942814840517    7.23838433211991
H        11.36402153083621   -7.06688959374201    8.18913278074867
C        14.26119644515525   -6.92112578780717    6.27850579513964
C        14.04677389581460   -8.25938369341171    6.58040008698335
H        13.04253117922569   -8.62872732749990    6.73265727324546
C        15.12287841411937   -9.12585762448609    6.67039036093696
H        14.95205512018674  -10.16785817793642    6.89969488810703
C        16.41144998290041   -8.66627989804011    6.45823997001944
H        17.24611842112282   -9.34890248075081    6.52343282007684
C        16.62911331977952   -7.33293793891846    6.14809768577638
H        17.63318300295257   -6.97525327281586    5.97021195077459
C        15.55809264393266   -6.46584445137156    6.05417619470610
H        15.71041926813196   -5.42611000619870    5.79194123503970
C        12.82924858800106   -4.92577573139958    7.73836869437920
C        13.91562727242492   -4.86957163315938    8.60179190799630
H        14.84317879835577   -5.35604255722278    8.33454277236715
C        13.80999680538152   -4.19936754144376    9.80802412865090
H        14.65727588667719   -4.16162511725838   10.47701775352274
C        12.62387413010259   -3.57724414022016   10.15740456406672
H        12.54474430867520   -3.05553275926007   11.09994819634572
C        11.54086403600397   -3.61874461765693    9.29257588455592
H        10.61599979355999   -3.12649119706965    9.55645339568184
C        11.64365793227316   -4.28295645709866    8.08609195907896
H        10.80412250672924   -4.31083296917228    7.40603983274664
C        12.03392034248049   -3.07882532546450    1.26504694966613
C        11.37018617653751   -4.29515773190270    1.13561008057937
H        11.71770493471741   -5.14741191986498    1.70284235243676
C        10.29524460603756   -4.41579414108971    0.27507296372081
H         9.78485495899897   -5.36301666562791    0.17723063599450
C         9.87373589891918   -3.32094871109282   -0.46186911083117
H         9.03201460623526   -3.41143408155244   -1.13286979000917
C        10.53502780155890   -2.10954509728511   -0.34133927044666
H        10.21093654834902   -1.25737053895821   -0.92124420451994
C        11.61304914259374   -1.98415150263772    0.51698814167247
H        12.12796689367766   -1.03778760234454    0.60520955251330
C        14.84550128318343   -3.51986414324644    1.34290822211916
C        16.00539642043429   -3.95250185174640    1.97913488611301
H        16.03230915065544   -3.97919257634462    3.06138755859481
C        17.09651931935285   -4.36064147595463    1.23683090350613
H        17.99245439907607   -4.70329619894897    1.73409479731464
C        17.03404587031844   -4.34282151875492   -0.14770669946183
H        17.88220527002488   -4.67102088285152   -0.73059549879708
C        15.88129866708461   -3.91475359752275   -0.78466785374531
H        15.83148659681670   -3.90773705421741   -1.86396627123854
C        14.78619648352574   -3.50363161292240   -0.04475195125198
H        13.88384955551510   -3.17974786950050   -0.54449828778647
C        13.73140484673272   -1.24001019175056    2.64017113924542
C        12.68269124834362   -0.48252179245084    3.15763492932225
H        11.72277156209829   -0.95055066028642    3.32121784291878
C        12.87150712349878    0.85116138411391    3.46133748320168
H        12.05540901142674    1.42940078589788    3.86822911443676
C        14.10720876246502    1.44327133692016    3.25185229516705
H        14.25649991560246    2.48483624980044    3.49479042019249
C        15.15180453099829    0.69591798403708    2.73539787553722
H        16.11603412864021    1.15532780714914    2.57099155331502
C        14.96951124226653   -0.64370086883296    2.43603834092831
H        15.79117285867837   -1.22559692765294    2.04151815121288

