123
CSD_code = KAJYIE | q = 0 | S = 0 | Stoichiometry = C65H52ClIrP2S2 | MND = 6
Ir        6.25515660413230   12.75263712595237   22.88937967282721
Cl        4.46674797313590   13.99925312435196   23.83943679961183
S         8.26660178008205   11.59178965956461   22.14759364307600
S         8.35148438631992   14.14165306882386   23.49293546058406
P         6.40653306303969   11.82848717068328   25.03445768826530
P         6.12110724542320   14.09423340427005   20.99826835102432
C         9.19561844977835   12.81792266689310   22.86188779366269
C        10.60504537394704   12.80839650933359   23.08163762104024
H        10.93266303033550   13.66565673004019   23.66037542113198
C        11.54267316508835   11.88619396406532   22.75874811322662
C        11.33680434089501   10.73926081543003   21.86613499048444
C        10.80464002363679   10.91115837530078   20.59176756206004
H        10.49158740979742   11.89461722304556   20.27451682054388
C        10.71104554045301    9.83938682427730   19.72548252646001
H        10.31136381959065    9.98992403446920   18.73441296806713
C        11.13764794473837    8.58278520906235   20.11948520370192
H        11.06844084025172    7.74818117528417   19.43729235153461
C        11.66534398948915    8.40138221464237   21.38691183897873
H        12.00507473483057    7.42397447663172   21.69847128730646
C        11.77737398824595    9.47416120650693   22.24981216184343
H        12.21135877317136    9.34190663402124   23.23062793732916
C        12.90333588371024   12.03198871324196   23.29038282321866
C        13.12854439950001   12.53649259151079   24.57193471831360
H        12.28714557389063   12.80764317363204   25.19170293741360
C        14.41308483059790   12.65578800920328   25.06636717915666
H        14.56943667953042   13.03947111293171   26.06415986093796
C        15.49809462072905   12.28211398368637   24.29034129413969
H        16.50150000259215   12.37786220084472   24.67775889157474
C        15.28806682678927   11.78166404913715   23.01574842333112
H        16.12961767702376   11.49006788261821   22.40450820400316
C        14.00459622834872   11.65120423101585   22.52144779462656
H        13.84779434695173   11.26718375481076   21.52378712035404
C         4.82245056569200   11.53519034323782   22.04098990531711
H         3.84208724297113   12.01506947466027   22.01100153664904
C         4.87981808512510   10.34877984839086   21.43637416955609
C         3.67008035166143    9.79409375401794   20.78424492914025
C         2.83993183778522   10.59544035623674   20.00543014550772
H         3.08842629425673   11.63537521731425   19.86008214826671
C         1.71427505341489   10.06516371796877   19.40290379475697
H         1.08411846203485   10.70031000619009   18.79672863140494
C         1.39734416287332    8.72767219020082   19.57014254791454
H         0.51692235445403    8.31404168295062   19.10023448724329
C         2.21916139952487    7.92159748554758   20.34072056634697
H         1.97818328791915    6.87666068059444   20.47549009127677
C         3.34899631154151    8.44723850434738   20.93860144942241
H         3.98596073730663    7.81551190087023   21.54121537056612
C         6.04569416805266    9.44060155984379   21.35390504820193
C         6.51111840513669    8.77360967286433   22.47997460031153
H         6.02836354899982    8.95558022771468   23.42846328042488
C         7.54936846170860    7.86414468816522   22.38146170463128
H         7.89452118001960    7.34283039414127   23.26435454936544
C         8.13468181760609    7.60773969259851   21.15479070093700
H         8.94350945820502    6.89633775623824   21.07887980554728
C         7.66529674110327    8.25378746418573   20.02403285152653
H         8.10693763251462    8.04318882689291   19.06055783755500
C         6.62068289328791    9.15293131338719   20.12028666157431
H         6.23429284359070    9.63006719339846   19.23044223627916
C         8.08627417791444   11.34295675631987   25.55769383278847
C         8.83744902475904   12.08814969226540   26.45933024039473
H         8.41260142119078   12.96490949608730   26.92681590674427
C        10.13418247298432   11.70962745565592   26.76199600509132
H        10.70825476718252   12.29482434183768   27.46656706869771
C        10.69419689671402   10.58952663823727   26.17129258313797
H        11.70712637064887   10.29953074287606   26.41093279169917
C         9.95166314162705    9.84670434574417   25.26813630017427
H        10.37522218472678    8.97059689304551   24.80028625172960
C         8.66118990049370   10.22572254996174   24.95460048410098
H         8.09293599513823    9.65859340052485   24.23307213093361
C         5.90857983181101   12.94928148344866   26.38870191270437
C         5.10708996756001   12.51368864880716   27.43753574763802
H         4.74430142610449   11.49653395691550   27.46043227121609
C         4.76057890859209   13.38463932892626   28.45589764191821
H         4.13393957858283   13.03551531649814   29.26379491255313
C         5.20680807374555   14.69432624772962   28.43932942771089
H         4.92895013586195   15.37204682301625   29.23321000665123
C         6.00543225688845   15.13485488658979   27.39673024278257
H         6.35323322313731   16.15734554360917   27.37354988990311
C         6.35279385150043   14.26937983758361   26.37787135312844
H         6.96828122882071   14.62340089136828   25.56300582582059
C         5.40367276629208   10.35489691045093   25.41265695301789
C         4.10037736829566   10.34451797184938   24.92058691708069
H         3.74657531773587   11.19376484999667   24.35437626355923
C         3.27810059038206    9.25791339370371   25.15039860304124
H         2.27324850418312    9.25185128527179   24.75555582670841
C         3.74765477543808    8.17676685747221   25.87968059533823
H         3.11050208257724    7.32210716211844   26.05324507783518
C         5.03453295012878    8.19382081213656   26.39199411818113
H         5.39759886247761    7.35759203282158   26.97206029481475
C         5.86371995767097    9.27864612882580   26.16425933168901
H         6.86623320750117    9.28439280555910   26.56847357172207
C         7.48391976454728   13.77933709871106   19.84042175264542
C         8.57433401227335   14.62880689242839   19.70433375797579
H         8.62360408874981   15.54401598532780   20.27825971972380
C         9.60017130302407   14.29834191585441   18.83463056619821
H        10.44827785493692   14.96009652861937   18.73204539691279
C         9.54255005618645   13.12610965672165   18.09930138362475
H        10.34068950003777   12.88032989512939   17.41374483803155
C         8.47226065147471   12.25839779445129   18.26066739138800
H         8.43164037497439   11.33359709736066   17.70407609672634
C         7.45862426933531   12.57297877266822   19.14329296935765
H         6.63934728787822   11.88887783279070   19.31704914431229
C         6.19079876996248   15.90526276763924   21.21731366234033
C         6.21875067733129   16.51101519269466   22.46461952462282
H         6.20168244444647   15.90890465031723   23.35893528157531
C         6.25090225283004   17.89169001686344   22.56428948230122
H         6.27129311639490   18.35620265320581   23.53902445704252
C         6.25344720050100   18.67299202261142   21.42279005900951
H         6.27953976276737   19.75005535907102   21.50172888491780
C         6.21595695214440   18.07214271211659   20.17341262970558
H         6.21183209514717   18.67929514518404   19.27961078548393
C         6.17997334109280   16.69598965957139   20.06866066344534
H         6.14508981911186   16.22646152713619   19.09417650700149
C         4.63384751792234   14.05195294897906   19.93555299960278
C         4.64504602187427   13.82911186598282   18.56396228284082
H         5.57104349590030   13.62391690925429   18.04647040288463
C         3.46222216836971   13.87321996548908   17.84489598230956
H         3.48052948627141   13.69528914731372   16.77923594969091
C         2.26418284216732   14.14585187725604   18.48218635418266
H         1.34524136679977   14.17640034925030   17.91536708376683
C         2.24995119275613   14.38421535502648   19.84745824527656
H         1.31973627657199   14.60285091302620   20.35040162887799
C         3.42698933932417   14.34099610502495   20.57059182960320
H         3.42217063543121   14.52476263252629   21.63593739662641

