28
CSD_code = KAKBON | q = 0 | S = 0 | Stoichiometry = C6H12N2S7W | MND = 7
W         1.43076433370182    3.28374581918204    2.95403449753781
S        -0.55269021516076    4.04846130241977    1.59529522270478
S         2.18999165289069    4.03665648873326    0.58865240008620
S         3.34542199060665    1.66642806677803    2.98306338331547
S         0.89863120812050    1.19259898054780    1.57251101943826
S         3.10664758210686    4.63144342465053    4.00756206817621
S         1.41350277081102    5.60671863589866    3.53505733413597
S         0.36486854469200    2.38448060796529    4.65244508038767
N         0.16925215839034    5.07596324765992   -0.76310566014295
N         2.77927632524146   -0.68766498663107    1.83705313519852
C         0.55345519947996    4.46112757422442    0.34609857055019
C         1.12879791613157    5.40250262547186   -1.79214067180210
C        -1.20987207963797    5.38771597909678   -1.04253169016962
C         2.39190332444553    0.54969417587520    2.09905645352588
C         1.95852943308770   -1.61150796573362    1.09370454763476
C         4.04822591710176   -1.20863254400898    2.28210047202168
H         0.72293154687168    6.19363304438179   -2.41775737310604
H         1.34654838285956    4.52757508017266   -2.40929726094384
H         2.06073387665487    5.73973819586472   -1.33848076464987
H        -1.31723402090711    6.45935655966653   -1.22019343683054
H        -1.83003667442082    5.10168728992722   -0.19632835744045
H        -1.53966847114584    4.84292763347896   -1.92988312327157
H         2.44025397155089   -1.85681906956360    0.14526360623315
H         0.98587585935883   -1.16740625986755    0.89642504295868
H         1.82713344899488   -2.52781655943151    1.67093808104911
H         4.62573858229419   -1.55059207548917    1.42161640555034
H         3.88559955504767   -2.05119799650360    2.95673279632081
H         4.60451788083212   -0.43411727476669    2.80390822152893

