96
CSD_code = KAKCUW | q = 1 | S = 0 | Stoichiometry = C46H46AsNPPd(1+) | MND = 4
Pd        4.28185567422871    4.53388784123833   18.26537507446503
As        6.19542930539978    5.30311239332992   16.91777338076361
C         2.73277488793373    3.85179957323806   19.32156126979337
C         1.46658148904173    3.42931480914786   18.89267853683455
H         1.18037113766713    3.51924361029328   17.84933524656656
C         0.58043510804699    2.90883398254793   19.79558320811067
H        -0.39542644023929    2.57833228431958   19.47115237758182
C         0.91074346333099    2.80282801027215   21.16135665301976
C         2.19085477410894    3.23136971132472   21.61022790328646
C         3.10007986756668    3.74008844319663   20.64460747404031
C        -0.01198946147481    2.28432946253515   22.09430922394111
H        -0.97850646928934    1.96202899131946   21.73599235975940
C         0.30580789731733    2.19463450085036   23.41918862005087
H        -0.40394191985570    1.79733264377540   24.12822118319344
C         1.56300029962720    2.62596749220266   23.86673884461699
H         1.80310312798785    2.55821964368327   24.91708218498331
C         2.48095616217302    3.13167886061740   22.98903822084542
H         3.43499672867495    3.46647554846192   23.36619758720670
C         4.49535163495076    4.21872855887542   20.98941662397154
H         4.86109275531349    3.77752611183123   21.92782464143647
C         4.45410069191075    5.74846561905450   21.12626849361873
H         5.35326622871632    6.14420075976552   21.59255593229771
H         3.60317729463905    6.02567726587711   21.74537440845024
H         4.32192182710099    6.21072260015688   20.12915981639731
C         5.47095789530838    2.35779172422197   19.76019524159227
H         6.03226812071357    2.10311094428863   18.85379229219807
H         4.47001137440114    1.92412448351350   19.69772240457904
H         5.98521807653169    1.91615408617531   20.62326267028036
C         6.75295738260013    4.32951894757542   20.08813870554733
H         7.12872024089544    4.05556469789174   21.08101189917101
H         6.77935316643924    5.41923174999027   19.98104667365067
H         7.42455031879340    3.90432979505731   19.33182950749813
C         2.49957556084843    3.72706833373684   15.60505483521793
C         1.47766990102560    3.68760858183330   14.66451168940211
H         0.87597710664668    4.56436030914561   14.47673156561352
C         1.21945440770517    2.50840992897198   13.98624540255943
H         0.42301682178274    2.47395411957301   13.25861456600858
C         1.97415748179170    1.37485260868055   14.24070817526741
H         1.76619823553337    0.45976665846718   13.70817364056822
C         2.98797441575439    1.40745652317140   15.18696090178451
H         3.56526992095783    0.51838482664399   15.39170316643017
C         3.24768045923251    2.57850334925422   15.87214507479175
H         4.03082913691956    2.61035740692997   16.64486903979957
C         1.64654463604206    6.37919675720318   16.77880502794939
C         1.32969368448611    6.73995138556488   18.08560014716729
H         1.83319425505107    6.24095520135350   18.90984671676800
C         0.38820108852871    7.72396174350810   18.32421412550087
H         0.14284055340985    8.00082551370121   19.33831054961081
C        -0.23165310221506    8.35851343171353   17.26003111618050
H        -0.96330414554718    9.12998612958349   17.44404218046747
C         0.09275446673687    8.01250016356022   15.95790782924438
H        -0.38137676481071    8.51774153653517   15.13036913810671
C         1.03293311293773    7.02925109548474   15.71193541612257
H         1.29514374545845    6.78484925874115   14.69252660297754
C         4.12593333628248    6.12666099031878   15.43328860728660
H         3.60081734993821    6.41986011655444   14.51668425913343
C         4.58850679634398    7.35041693393919   16.26470286412778
H         4.18266972859756    7.25217797061575   17.29661766453755
C         4.09689210449518    8.66467192675575   15.72931561457552
C         3.45745955760521    9.55386654116218   16.58518147873272
H         3.33312415642372    9.29563339627271   17.62834178556450
C         2.96933863150666   10.76016312023034   16.11748149547878
H         2.47235799779486   11.43619888319030   16.79649476280927
C         3.11653745507104   11.09665061938517   14.78318502339588
H         2.73637665409200   12.03696436448373   14.41495377706091
C         3.75377881197029   10.21932422990703   13.92268208626941
H         3.87364427417613   10.47476094316310   12.88053554816511
C         4.23693146905947    9.01014541478556   14.38961449033859
H         4.73104944883506    8.33722295977221   13.70461594140012
C         6.12844304216164    7.21995461513403   16.38264318439829
H         6.55072986929868    7.97376736959616   17.05239194918046
C         6.72722182128272    7.21046658501484   14.99963285849790
C         7.59651155462637    8.34286101816233   14.57343777206182
H         7.88541092407471    8.25379509811097   13.53042243701145
H         8.50149394396850    8.36416292950629   15.18168594302373
H         7.07637927616168    9.29060011006315   14.71456655831355
C         6.30662497270986    6.15428338818439   14.29767375630214
C         6.55456686904406    5.80739918059535   12.87007036812620
H         5.60995874492915    5.73161599889888   12.32915645514234
H         7.05284346210436    4.83941013565353   12.80228807296895
H         7.17696179961133    6.55088895214483   12.38100096557632
C         5.38020021812144    5.28829953204803   15.11873349852627
H         5.13298333123784    4.33000587843870   14.64889599644830
C         8.04474304206518    4.79778816920956   16.54332354380261
C         9.10296184453122    5.59401330434378   16.96938880260001
H         8.89193627346359    6.50716735817905   17.51997887632287
C        10.40647361425867    5.22901501562544   16.68090483090220
H        11.22622657050460    5.85449238953100   17.00110076869160
C        10.65920203938239    4.06094377996518   15.97969980971478
H        11.67573926461039    3.77946418379819   15.75223421412987
C         9.61099357143069    3.25110319407345   15.57327913562478
H         9.81194612650332    2.33847206347468   15.03221915023591
C         8.30684587359573    3.61464517311273   15.86019517134264
H         7.47583286987079    2.98641341907305   15.54735408152426
N         5.39769451741253    3.81680694150765   19.88490304803328
P         2.99570917200612    5.19306579603889   16.55239778528761

