37
CSD_code = KAKDEH | q = 1 | S = 0 | Stoichiometry = C8H20N3O5Pd(1+) | MND = 4
Pd        0.50123909459497    6.65768421995093    2.75271076989215
O         2.05434257460162    5.84919303935119    3.67034320029107
O        -0.26996344372937    3.25757845325114    1.20045211024376
H        -0.95671997273548    2.64395429123637    1.48682125704195
O         1.78747610792186    1.58266734553720    2.36680872108566
H         1.27206973416412    1.30022282748486    1.60071996797966
O         2.98871177653943    3.74353873294412    3.75500883123244
O         1.32611695578100    1.37623183898214    5.87138438159846
H         1.63640931953347    0.64879020901223    6.42120348212386
N        -0.00767222656098    7.64141250350303    4.48930786350242
H        -0.45008838006751    6.98298335652718    5.13805914856690
H         0.85948876828643    7.96317565250268    4.92892272146446
N         1.24799383235634    5.63012263491168    1.09839832428074
H         0.64174705478108    5.34290624863019    0.32478368754578
H         2.05035593666172    6.13816101808397    0.71177432979036
N        -1.20590010629938    7.72272017519078    1.95657552271854
H        -0.84873668856246    8.50997425000219    1.40879401940947
H        -1.84440943812477    7.20481096112363    1.35355947768318
C         2.64590991043496    4.84272362746764    2.95518170865284
H         3.62329081790113    5.17206604190442    2.55163296534027
C         1.72809491848986    4.40660023836761    1.77439104618578
H         2.27046259932940    3.74377437279087    1.08887159760618
C         0.51140530492970    3.64372335757281    2.31359151901927
H        -0.08808893820682    4.32020336149095    2.98028619462826
C         1.01886292883999    2.45503053469148    3.14750238920929
H         0.16745894928939    1.92655943313899    3.60642328861051
C         1.89276811368376    3.02915037185381    4.27977108564500
H         1.26420448596933    3.69574139090867    4.89243655395391
C         2.42681096482005    1.91116427439101    5.17128324208362
H         2.91014326594405    1.16023578040056    4.53787049656430
H         3.16950372394755    2.34059083697735    5.85322622769615
C        -0.91330962530891    8.75132070698487    4.15552504626084
H        -0.32233283938766    9.56152216992012    3.71405760576229
H        -1.43055685507320    9.13880383953610    5.04071216429990
C        -1.93360743013126    8.24369978965675    3.13276620953291
H        -2.51202653541668    7.42349726078646    3.57070228955368
H        -2.62485465919607    9.04846485293534    2.85824055294056

