69
CSD_code = KAKNOC | q = 0 | S = 0 | Stoichiometry = C22H32CdN6O8 | MND = 6
Cd        5.07609923411578    5.56102105139705    8.03805426280231
O         7.10469962427285    5.46023441324283    7.15410809669291
C         2.94203801839229    5.92099646863534    5.67788554341595
H         2.58304985737695    6.46906167978633    4.79353612214200
H         2.27720159575883    6.14051311923123    6.51772066557118
O         6.48458932126356    4.55287227990703    5.23027415255719
C         7.33142908374526    4.92819255165904    6.04638905340676
N         4.47731492286906    3.57869542071462    7.06456795180508
H         5.11726919974820    3.57326385808784    6.26438109519164
H         4.66983890993440    2.75067789714729    7.62483093603335
C         9.95217148821022    6.07091734184622    7.44969480662595
H         9.72047201998774    6.96004977826713    6.88336217087930
C         9.64487208111240    4.82016899423533    6.91070784106089
C        10.51653836335586    6.18244100395539    8.70067159202838
H        10.73559874184416    7.14406671910538    9.13875238494030
C        10.79699985473078    5.02784295034234    9.42616174253984
C         9.96674423510100    3.67474498871467    7.63893064265578
H         9.74103748893902    2.70283468381257    7.22594323644679
C         8.84097273394421    4.73170181725786    5.66881997900810
H         8.93793713111270    3.76961897502218    5.16739858028993
H         9.08824994187352    5.52602891097221    4.96325066705973
N        11.31154449761877    5.13756345567989   10.75589959021829
C        10.54644575757051    3.76974008051424    8.88566326960696
H        10.78734272191245    2.89167642758297    9.46519362726590
C         3.09789237756338    3.51709626624483    6.56515362364601
H         2.42884635561457    3.82412812447030    7.37251687834587
H         2.83950756079388    2.49165310955351    6.26080481747208
C         2.89124332112637    4.42910892170375    5.35867562678780
H         3.64893977428900    4.20061784211045    4.60387242428721
H         1.91183721003991    4.20730852564521    4.93014465779969
O        11.35655076358797    6.24602281024163   11.25601212543448
O        11.65427397145743    4.11805882041873   11.32221561039144
N         4.29781761828777    6.35016929396714    6.04231768761774
H         4.38255106513372    7.35604760814042    5.90888485858457
H         4.96779243988328    5.89471051564106    5.41486225108335
O         3.04753252569505    5.66050700020063    8.92237659293573
C         7.21019238496306    5.20278372294626   10.39868791337322
H         7.56908648258685    4.65537668827790   11.28348507470949
H         7.87523408659090    4.98282370507438    9.55913381480359
O         3.66718349469466    6.57090959280682   10.84491497853034
C         2.82054518712798    6.19459260193614   10.02905117401578
N         5.67453481664544    7.54400710801200    9.01042688721166
H         5.03460370627872    7.54958316447400    9.81064221439384
H         5.48180112880265    8.37180630496930    8.44991599898232
C         0.20061437513994    5.05151250227340    8.62535076885377
H         0.43266166065196    4.16268928133426    9.19201881539711
C         0.50732429003419    6.30258748013965    9.16393523479249
C        -0.36361932004367    4.93930566509091    7.37437467268905
H        -0.58222740845318    3.97743153884562    6.93661091437556
C        -0.64453839845122    6.09352863865254    6.64846241589800
C         0.18504746954686    7.44761344140252    8.43526697910491
H         0.41030047257781    8.41977303316480    8.84791875058080
C         1.31091106021689    6.39175484237358   10.40596794543065
H         1.21407997004750    7.35424847439334   10.90662365860611
H         1.06316910439588    5.59802964518884   11.11205805051783
N        -1.15898894933137    5.98311931949894    5.31874341467674
C        -0.39453873429101    7.35192763178896    7.18852738430038
H        -0.63579679940850    8.22968295571335    6.60868135033570
C         7.05396883142342    7.60605184022931    9.50977134393024
H         7.72303731331832    7.29846189066578    8.70263122358407
H         7.31229975724561    8.63173438701160    9.81335478288727
C         7.26067230124069    6.69489804603087   10.71688535118631
H         6.50284947525582    6.92377003316248   11.47144512132730
H         8.23999269842654    6.91714908468784   11.14537666902585
O        -1.20382431279888    4.87441943947077    4.81914627051584
O        -1.50193084845568    7.00229881884744    4.75197154445871
N         5.85457120817713    4.77313628907191   10.03424592027916
H         5.77012720262718    3.76726702646144   10.16793148382418
H         5.18441448503440    5.22857210052943   10.66150671277953

