87
CSD_code = KAKNUI | q = 0 | S = 0 | Stoichiometry = C28H46N8NiO4 | MND = 6
Ni        4.46153122739166    5.13842508942367    5.38776905426340
O         3.99607180131286    4.09358628255731    3.41059119913594
O         2.00684801587650    4.99801719933037    2.99540450157068
N         2.78269272285618    5.99736556929066    5.40536582376150
H         2.40370777593069    5.70508889628471    4.46355085703862
N         5.38584971815104    6.68057702639882    4.21712075910115
H         5.12570229548268    6.46649823200464    3.25289006568636
N         3.50345795656420    8.17255272905825    4.48675771088410
N         2.72046379970312    2.00503756842778   -0.93263147306218
C         1.92715759412607    5.38496268672774    6.42435899750700
H         0.87386647154520    5.64791062590131    6.25801296922324
H         2.23552531125880    5.75891614576872    7.40711263536415
C         2.77581602952300    7.47143225174862    5.50336150081597
H         1.73567530562006    7.82322775344694    5.47522388840395
H         3.21371562944310    7.73351794769045    6.47335434398799
C         4.92824880469921    8.03577367849814    4.55071578860684
H         5.24833386387806    8.24178475837061    5.57772659348189
H         5.37928925289269    8.78429141562369    3.87961083440560
C         6.80944421171009    6.40855734015989    4.40095060984632
H         7.10336433508556    6.77569691487292    5.38851083602531
H         7.43228726643024    6.90472839949991    3.64174576682954
C         2.91635971484523    8.14423852610629    3.14869281390907
H         2.54712214881543    7.15028028316621    2.87187352099872
H         3.69505547021767    8.42360416952011    2.43469427352305
C         1.77259067812031    9.15301564077012    3.02459054208749
H         0.95934578877498    8.87751365329771    3.69745994416198
H         2.13285483434199   10.13922601624821    3.32341066395634
C         1.23540711410817    9.20212799637989    1.59643315554142
H         2.03770654067044    9.49877077520779    0.91676234370037
H         0.90838085767343    8.20156370567151    1.30604273533732
C         0.07249978411811   10.17700354901499    1.46100820489562
H        -0.74928673235798    9.88352076012418    2.11036936358131
H        -0.29134159721508   10.19823507163436    0.43652263618470
H         0.38336444240531   11.18260459709149    1.73613859385564
C         2.96201183550768    4.24469684136760    2.71867456988526
C         3.84684249456616    2.50382148921560    1.10918174557070
H         4.67324197731976    2.32441061138661    1.78030893091972
C         2.87943655929250    3.44803159498161    1.43404453454564
C         1.82974275077754    3.65025460885558    0.54562450983621
H         1.06534733130757    4.37589477523262    0.77786041542994
C         1.80129013902597    2.90394197064411   -0.62032780156443
H         1.00635518240817    3.02757013721046   -1.34511411663483
C         3.71635604312588    1.81252325790889   -0.08322500433872
H         4.44266586782426    1.06605486565077   -0.38031023794549
N         6.14035750170853    4.27950341854947    5.37017293252211
H         6.51940032309603    4.57180961546178    6.31195202378045
N         3.53725299338087    3.59632042425918    6.55850997573691
H         3.79734112444979    3.81055141219908    7.52272338036854
N         5.41969628545759    2.10435226549231    6.28896053215151
C         6.99584409308411    4.89184836389876    4.35110778445902
H         8.04913317829363    4.62881003470289    4.51733991598583
H         6.68734155315954    4.51793589433862    3.36837942422964
C         6.14719319120501    2.80543574226961    5.27222640970351
H         7.18733245776048    2.45362908909784    5.30020759172006
H         5.70913862879850    2.54332873142733    4.30230775517016
C         3.99489191384624    2.24108540940674    6.22512453407098
H         3.67471995628167    2.03487025663691    5.19817956835456
H         3.54394010364382    1.49267602670400    6.89640995884930
C         2.11365773840906    3.86826359153833    6.37456922754795
H         1.81983521581546    3.50109136814840    5.38699287239625
H         1.49078475692962    3.37206874019597    7.13373842574752
C         6.00691004948832    2.13278301900532    7.62697106547951
H         6.37557144077498    3.12690772418808    7.90396416335667
H         5.22841599858453    1.85280222905687    8.34095257646819
C         7.15130438077052    1.12468641487546    7.75082037461612
H         7.96456555692699    1.40108509163039    7.07833374704645
H         6.79176212644394    0.13839944484109    7.45137966772811
C         7.68814051764260    1.07517194082853    9.17909503179721
H         6.88588621909660    0.77755462141102    9.85839806976989
H         8.01436451979801    2.07581019233853    9.47013130829171
C         8.85173623704245    0.10108513672679    9.31426549526375
H         9.67349018944603    0.39555796960977    8.66530928830427
H         9.21530319562194    0.07952554745408   10.33883938097376
H         8.54169626149000   -0.90458490664294    9.03846014601385
O         4.92693569468228    6.18332293781508    7.36494990942874
O         6.91623141348200    5.27899120847380    7.78010197494996
N         6.20262952873607    8.27211193212161   11.70801673928221
C         5.96107946325297    6.03233592635201    8.05678656759969
C         5.07646943220496    7.77355811049503    9.66603736147076
H         4.25020008581666    7.95311632954744    8.99478885725437
C         6.04359941833290    6.82898027111812    9.34143813344540
C         7.09299748966459    6.62638572798904   10.23012752317632
H         7.85728002638482    5.90058909565514    9.99803343791227
C         7.12145947565687    7.37275317895710   11.39604719234591
H         7.91637535472984    7.24913117910299   12.12085797753375
C         5.20699284100328    8.46495332497034   10.85838503874042
H         4.48084345244956    9.21165255997922   11.15528705863753

