57
CSD_code = KAKVUO | q = 1 | S = 0 | Stoichiometry = C14H36Cl2CoP4(1+) | MND = 6
Co        3.32573868052701    9.03403922407043    2.50285179853564
Cl        4.47342944234011    7.53602586689947    1.37632505127153
Cl        3.86842728033509   10.70744712084202    1.20295460172962
P         5.20623058306700    9.26091900379518    3.70194741024909
P         2.39136917782973   10.61872935077339    3.76342675130510
P         2.61764406902363    7.52810060384930    3.96366598362106
P         1.97289806069360    8.56359467571214    0.74632973183665
C         3.65364144824752    9.38569278563091    7.57078831767054
H         4.35929360859520    8.65525277236449    7.95970857561123
H         2.68321832226246    9.19551346666045    8.02391667725473
H         3.98450629319851   10.37458781801384    7.87969076789319
C         3.56901528971195    9.29673255115663    6.04014800665227
C         4.92089541437153    9.73983114716875    5.46344655305305
H         5.73123693566551    9.29867850108725    6.05170751706022
H         5.00651767007140   10.82641356096964    5.54420233721288
C         2.44822062628645   10.23140368827047    5.57269434671109
H         2.54457938283562   11.19222750822804    6.08895267987696
H         1.48518982069884    9.80246327319735    5.86058077827348
C         3.25628761133942    7.83950021378908    5.66804885796443
H         2.49916122918603    7.44480353390734    6.35447698224761
H         4.16132311641868    7.23920479758405    5.79518043541959
C         6.32864542570345    7.83068606464670    3.87529963627194
H         5.82489406908889    6.96105896435904    4.28955232629252
H         7.15398056184730    8.12226916079172    4.52598256030202
H         6.71739327110823    7.57381251899406    2.89115440481021
C         6.41215364291852   10.49086259284670    3.12077496338122
H         6.79888758001190   10.13833009650271    2.16374396686312
H         7.22509614104949   10.56388297861154    3.84416484116273
H         5.95492768013468   11.46412690237827    2.96217562307462
C         3.09684381724133   12.30150636562236    3.73313429231324
H         4.16269850031778   12.29001008615737    3.94628591852370
H         2.57801677389113   12.90794925009527    4.47669635746318
H         2.94689123873789   12.72927297229311    2.74332522269140
C         0.62977958665228   11.07021525249550    3.58188208347415
H        -0.01263790109347   10.19385196112357    3.56555667511870
H         0.51047578457035   11.61931111803194    2.64965317554158
H         0.34932234879208   11.71670211816896    4.41430099931104
C         0.81790774947118    7.36337628219480    4.27886101952063
H         0.42386904585217    8.25219041482810    4.76474382462683
H         0.65286595771455    6.49830657775811    4.92196656845049
H         0.28573567354947    7.21642664419529    3.34121973421889
C         3.06257251928937    5.77572167560854    3.73942508093091
H         4.11383265904901    5.67704246499041    3.47852181270393
H         2.47223761624833    5.36226654098608    2.92346007674195
H         2.84823394115739    5.23076295843984    4.65972256237739
C         0.37420855308993    9.45003099606542    0.60046992470774
H        -0.28717787212320    9.20600473060411    1.42813851672389
H        -0.09983534009632    9.15874208955935   -0.33636430919871
H         0.56047056082547   10.52170560066212    0.58311654045987
C         1.42892440548956    6.82489033910557    0.55150281170462
H         0.89030551312746    6.46990056673082    1.42616427563790
H         2.29902973079811    6.19444420389515    0.38039982622802
H         0.76966215645209    6.77090245344010   -0.31435583713112
C         2.64516999179026    8.88066630246001   -0.91631076226549
H         2.65640499517667    9.95134201596446   -1.10959813413504
H         1.99722461742261    8.38281258909157   -1.63789563536210
H         3.65686494203597    8.49215468633626   -1.00491510498632

