45
CSD_code = KAKVAT | q = 0 | S = 0 | Stoichiometry = C22H18N2S2Zn | MND = 4
Zn       -0.49439461044413    5.03843786384452    2.69701032699064
S        -2.36886086573235    6.20714637159198    3.55322074106373
S         0.37427059672591    3.01170999349470    1.95231872147537
N         0.95309930874521    5.94839145594059    4.06843201558171
C         0.96715627476231    5.73131795509506    5.37273779966939
H         0.51041999229275    4.80735312011979    5.70043600137858
C         1.52945472778789    6.61654786834831    6.27739454336615
H         1.52433688229240    6.39554876219987    7.33241489618470
C         2.08087070856515    7.79029723848138    5.78908032708473
H         2.51176475009733    8.51860007837467    6.45929190159503
C         2.06678111924476    8.02022061102660    4.42549034517117
H         2.46850059258490    8.93800879111778    4.02991543612619
C         1.50020958551881    7.06610673130674    3.58049797698760
C         1.46906284737106    7.22463987574603    2.11877352771815
C         2.28229018177994    8.13704760752976    1.44566480992279
H         2.97828277720222    8.75754863064899    1.98549815881239
C         2.20159441132914    8.22536700939996    0.06777316880960
H         2.82183634742797    8.92674426423556   -0.47006888730713
C         1.32044303591615    7.39637372746201   -0.60935797519075
H         1.22889546039241    7.43168294028882   -1.68275014844718
C         0.55962907077723    6.50766730451924    0.13181890813057
H        -0.13591769548363    5.82945475895754   -0.34325968008147
N         0.63204998904891    6.42860615184031    1.44940562645534
C        -1.58126195506232    7.75835936837444    3.80501454064528
C        -1.36002138110044    8.21199781672491    5.10198515023015
H        -1.66987006891882    7.59503644281032    5.93238381954035
C        -0.75262063939613    9.43356952265571    5.31555492142267
H        -0.58285684527324    9.77709778398145    6.32615313880746
C        -0.36295733018531   10.21913630180601    4.24185684143602
H         0.11335237287805   11.17365957435588    4.41198935079627
C        -0.60790880334124    9.78358226115433    2.95008275484919
H        -0.32730497698510   10.39986083788210    2.10703000494793
C        -1.21917566272828    8.56382212390648    2.72984959473655
H        -1.43440766005340    8.23152896886682    1.72381550561050
C        -0.90947865168847    1.82653226478239    2.13399893235724
C        -2.16547136242700    2.14176206957953    2.63667173268574
H        -2.38859484524189    3.16063073541227    2.93788267305265
C        -3.13358841535147    1.16205291861062    2.75268314068662
H        -4.10600613502120    1.42356182433177    3.14413303110129
C        -2.86293532871737   -0.14115769734899    2.37128475081439
H        -3.62242708408863   -0.90337017617069    2.46326831395386
C        -1.61037526475090   -0.45902903736931    1.87037506155925
H        -1.38866920753685   -1.47309896449437    1.56992446641479
C        -0.63860416442777    0.51392887284902    1.75075097923256
H         0.33930792119095    0.27521707572086    1.36127275371173

