54
CSD_code = KAKWIC | q = 1 | S = 0 | Stoichiometry = C14H34NOP2PtS(1+) | MND = 4
Pt       -0.04043759230984    3.39821937462527    2.41762319684129
P         2.15033497646120    3.27442817899258    1.49095452148240
P         0.32539348503746    5.13862756252635    3.88136492820896
S        -2.30804398710393    3.42775287574699    3.02563003235231
N        -0.73865767038774    1.70168233539403    1.30652432928091
C        -2.72734677921225    1.75727191999299    2.77743470889989
C        -1.63072499223621    0.89611293210134    2.15258048622535
O        -3.80478952810719    1.32384678383704    3.07984944217519
C         3.70079602600691    3.50177547018328    2.46080459768583
C         3.92082272788304    2.36310051044267    3.45136027106641
C         2.24259001969173    4.59351586152003    0.21021277798815
C         0.93237553816607    4.65409256071709   -0.57045382763093
C         2.48203919573915    1.72888535803854    0.52191861668249
C         3.86681817984164    1.61813219620345   -0.10806743440103
C         1.32866170608267    6.58052083055690    3.34120872029107
C         0.60426340645508    7.37078795697123    2.25634918473571
C        -1.18796299860327    5.88444558752491    4.60890253983671
C        -0.94395339227311    7.06764537123320    5.53870200206274
C         1.22571802265669    4.42316317362451    5.31339728174429
C         0.64055561132070    3.05174810637752    5.64018862616538
H        -0.03595532865841    1.09352237427132    0.88822973847950
H        -1.29093346650463    2.10198806797245    0.54186836321665
H        -2.11597817306061    0.09020763274014    1.58755571000091
H        -1.05289565958252    0.44203687410787    2.96548144030203
H         3.62320448878704    4.45097682684469    2.99558540639017
H         4.53651251600443    3.58219136995678    1.76164456725943
H         4.76242341353185    2.58748866772155    4.10215927308362
H         4.13533431376930    1.42924887996948    2.93863477251249
H         3.03746959597294    2.21544727173334    4.06929645021205
H         3.08579924216910    4.41110441400980   -0.45839602229199
H         2.41754459047028    5.54309562545924    0.71812280733445
H         0.89648180565228    5.54513865622965   -1.19194307624878
H         0.08176189030652    4.68330699451555    0.12212893941143
H         0.82278814546898    3.78965662665681   -1.22170431012598
H         1.73077479550461    1.69205634707460   -0.27303229563821
H         2.31687491571077    0.87779785688339    1.18961725522382
H         3.90609631932413    0.72276982842409   -0.72485678970706
H         4.64697565289533    1.53556399096892    0.64250052893247
H         4.08685523354411    2.46873332169538   -0.74773325526759
H         2.28495599237126    6.20977456115530    2.96714013135267
H         1.53207275250891    7.20333030249614    4.21515369305985
H         1.26649607559767    8.11340901030728    1.81783196498209
H        -0.26017704141072    7.88922710625965    2.66113316734516
H         0.25700508012413    6.70375520984393    1.46922657789331
H        -1.69832221436958    5.08448150516222    5.14998498120834
H        -1.84087305686489    6.17466982749990    3.78213047107810
H        -1.88876959236473    7.35747724732015    5.99231699797053
H        -0.55603083865707    7.93098950906416    5.00565703068729
H        -0.25583682100170    6.81617465151107    6.34215560673818
H         1.14292235027434    5.09285796579302    6.17118714301819
H         2.28210644805141    4.33598469933167    5.05289807653163
H         1.23162954233107    2.54792264858494    6.40106194604815
H         0.62453828952816    2.42723979700112    4.73779131599129
H        -0.37890321261320    3.14261938483895    6.00718639120604

