64
CSD_code = KAKWEZ | q = 1 | S = 0 | Stoichiometry = C19H38Cl2P4Rh(1+) | MND = 6
Rh        0.51981379208962    5.20601843993141    0.11836503546461
Cl       -0.72605132924419    5.26326131740200    2.07527141862913
Cl        2.45091759809544    4.62506217023359    1.26574962876705
P         1.08027603787806    7.41669163846217    0.49487900232323
P         1.64925714615362    5.31232695982699   -1.87103738883181
P        -1.34036062978924    5.93324884861470   -1.01925988979174
P         0.27287402567278    2.88626526455186    0.30335197422768
C         0.37490636430086    9.04201600231946   -3.28582165157292
H         1.33273782609973    9.55526155499132   -3.32825498666292
H        -0.38943764846452    9.77238911123401   -3.03087617430175
H         0.15430622019158    8.65250331520535   -4.27714333111763
C         0.41185564798840    7.90941773089378   -2.24759401025510
C         0.56475687739643    8.55405805033923   -0.86226926153191
H        -0.38664015427197    9.01002166505153   -0.57508350635804
H         1.31179302725937    9.35198012497375   -0.91187596145935
C         1.61728540564468    7.01422222205237   -2.58627947599139
H         2.53077777497426    7.52269701659790   -2.26514411485190
H         1.67748736502277    6.88678624806044   -3.67245124461323
C        -0.91511731819249    7.14435975699006   -2.35429548156369
H        -0.93288036483149    6.60601470612567   -3.30549682173379
H        -1.73816180664008    7.86659914140139   -2.37613917142412
C         0.42345569583901    8.23152184377154    1.98108091809420
H         0.86668847333193    7.74374271415973    2.85031153530558
H        -0.65706018669231    8.12768084325377    2.05113792421146
H         0.70538443200807    9.28502007137293    1.96359666200646
C         2.85446897131976    7.78667414596534    0.70160766654438
H         3.21549557302474    7.24974702530576    1.57854844574990
H         2.97085449725684    8.85962738796503    0.85784074671756
H         3.43779984673007    7.47188526267945   -0.16052823518809
C         3.42667457233277    4.91986391447973   -1.89949203990504
H         3.54704753653455    3.83957050155495   -1.82752147993476
H         3.92728894420836    5.36916947617536   -1.04385832857714
H         3.86576260142667    5.27827153610072   -2.83116515837555
C         1.05012399007222    4.31715456094028   -3.28907640948926
H         0.09917824500811    4.69883182562278   -3.65389093683438
H         0.91224944953224    3.27930450903970   -2.99177061326107
H         1.79050226391025    4.36783245474539   -4.08859334443367
C        -2.42229980224946    4.78524769756956   -1.94005429259759
H        -1.84801800668608    4.06437469423632   -2.51770274585324
H        -3.06885391373567    5.36353871153159   -2.60072863437438
H        -3.03399193461329    4.24001699600640   -1.22280664738376
C        -2.59859828602899    6.82570725203889   -0.05120371833716
H        -2.17449367609033    7.71385577310591    0.41241295023722
H        -2.95970093937036    6.16502033830567    0.73628759922703
H        -3.42278210389488    7.10450945281532   -0.70869167089529
C         0.29916203926842    2.23716710063482    2.00637041954629
H         1.25972367188899    2.47441893610252    2.46225170360529
H         0.16738323223884    1.15564320968890    1.95070650879365
H        -0.49378984982151    2.67465293498159    2.60793287547145
C         1.60742724401407    1.86179570343028   -0.41345969145293
H         2.52836861390839    2.10802066021963    0.11442619305811
H         1.75120105827053    2.03957540151097   -1.47600450161839
H         1.36293181607422    0.81284218819714   -0.24694720581716
C        -1.26494042524658    2.14325459046795   -0.32252228138609
C        -2.43381307968278    2.38188633491990    0.39769639350354
H        -2.39875934379545    3.01485667076681    1.27385740657568
C        -3.62958043876315    1.81904166246140   -0.00850392160153
H        -4.52894589634054    1.99432591453470    0.56268517696475
C        -3.67207024093626    1.02761322522799   -1.14628836674028
H        -4.60343489395701    0.58317039953366   -1.46122309697889
C        -2.51734996012463    0.80669576878336   -1.87805704815035
H        -2.54884790181423    0.19187026455201   -2.76505985228507
C        -1.31645724579755    1.36311929104649   -1.47135866943313
H        -0.42148049986411    1.17207946897571   -2.04543682205888

