51
CSD_code = KAKYEA | q = 0 | S = 0 | Stoichiometry = C18H26N2O2S2Zn | MND = 4
Zn        2.19796965461848    5.41838694455102    6.56237920259882
S         0.61805988469788    5.87894255187679    4.89920895246227
S         4.53340929607452    5.44378507010325    6.66985930569733
O         4.29329269143227    5.14714439967777    0.33453814485112
H         4.25896494006783    5.90969870568578   -0.25527704162970
O         5.34947465405343    8.47631970748192    1.66680901728317
H         4.76742102334717    9.24509381667725    1.63879285477931
N         1.45149765192982    6.39938284425419    8.49379875192524
N         1.48556482674593    3.53154312303502    7.65146274791919
C         2.41715344833879    7.35524218728300    9.03095669441250
H         3.39939686242893    6.88976868022273    9.09260817389350
H         2.11940605410962    7.70878555520436   10.02556991904988
H         2.48796182145069    8.21169672541593    8.36363102132989
C         0.17286175899824    7.07195984151384    8.28457469434194
H        -0.54254914881249    6.39246732827675    7.82927714255224
H         0.31201454590336    7.90400529868990    7.59812785357269
H        -0.23677751377134    7.45133627430486    9.22910817441451
C         1.30818302258676    5.27336141825838    9.41678020027597
H         2.30398411505686    5.00963728134937    9.77716362325695
H         0.69580954509982    5.56104974644817   10.28466141466633
C         0.67572914073523    4.05179705237357    8.75345290529286
H        -0.29942876052435    4.32864691412211    8.34909719646184
H         0.52000298598973    3.27572604105899    9.51783306576110
C         2.61892016003056    2.76039574600264    8.15397234091585
H         3.20115075487545    2.38670265318606    7.31470803557785
H         2.28370111315885    1.91176068889203    8.76328728945961
H         3.27372434875117    3.39298975936652    8.74727187857995
C         0.66260883180551    2.67838134129069    6.79714385486295
H         1.27868221866376    2.25406514982443    6.00707863363010
H        -0.12406304200186    3.27154932035938    6.33380045274716
H         0.21044614093721    1.85802216155669    7.36756426113417
C         1.69254799877267    5.63857931586015    3.52285369353528
C         1.66060876763548    6.53876554855011    2.46675522655843
H         0.96948410186312    7.36739954421162    2.50049756486091
C         2.51662349862005    6.38348027979940    1.39361911818133
H         2.49868501772774    7.09815448565849    0.58045994855855
C         3.41352061901786    5.32342910847069    1.35940354107970
C         3.42171521481561    4.40182829039957    2.40117358288788
H         4.11470314101186    3.57677018549458    2.36110712520281
C         2.56514975915203    4.55799060957261    3.46944469099394
H         2.57920582101645    3.83767754977489    4.28025223647766
C         4.78745802677581    6.38999228619339    5.20429680418626
C         5.74770093558053    5.98585830740250    4.28421475359777
H         6.33184855864369    5.10170437545267    4.48711167073657
C         5.93722687802097    6.69345427868355    3.11591727713467
H         6.66370309460429    6.37489329806794    2.38574686350440
C         5.16823420479668    7.82143553594762    2.85382889902846
C         4.23405411086800    8.24794477800515    3.78798733029239
H         3.63982669070232    9.13195632041506    3.59432014968557
C         4.04896298003475    7.53906624499951    4.95850507226065
H         3.31576755318597    7.87687532877743    5.68266368908355

