41
CSD_code = KAKYEC | q = -1 | S = 0 | Stoichiometry = C20H8AuN4S8(1-) | MND = 4
Au        4.51126927262155    8.21332807835176    7.31273549304291
C         3.29941946685265    7.72676528153687    4.42957947095845
C         2.33672570219330    8.43399515115828    5.02316062008791
C         2.30003821384612    8.35438383821944    1.95432337602971
C         1.26657914234819    9.10894844991514    2.58919280964972
C         1.82300737363659    9.37975763539814   -0.03055943859621
C         2.07283349030856    9.55992978857495   -1.40018166898191
H         2.86237234491599    8.98455663120812   -1.85755723806748
C         1.32235869630633   10.46047022666170   -2.11155396601159
H         1.51395766932081   10.60968768484904   -3.16456746018534
C         0.30455497816950   11.19672880702621   -1.49002323927132
H        -0.27061983737084   11.90001376856623   -2.07515686022504
C         0.03512667923615   11.03515414041651   -0.15526712242316
H        -0.74130859185782   11.59337367048909    0.34388587393872
C         0.79384071025293   10.12614970904768    0.59895814713813
C         6.70611400710743    8.02709248841088    9.58528121875291
C         5.74456370569507    8.73454157528587   10.18056918704001
C         7.84987406433343    7.44545459872620   12.01508543374415
C         6.81844878426510    8.20044769714795   12.65267826689181
C         8.40830457289360    6.51825021800777   14.02753333971703
C         9.21271684102237    5.65847616651040   14.79190563850969
H         9.98620115108473    5.09850990480928   14.29012836765066
C         8.99075435722112    5.54584292566652   16.14043306162053
H         9.60174873012658    4.88083638334544   16.73396672723912
C         7.97598138815342    6.28333235541763   16.76524541478215
H         7.82253888232282    6.17357190209502   17.82930914464482
C         7.18086076345451    7.13610831412472   16.04340398883727
H         6.39301024987820    7.71171121232335   16.50339072316672
C         7.38194716272256    7.26568030293625   14.66018928492072
N         2.55552339918187    8.49476122991323    0.68503387845532
N         0.54305131010395    9.95920361464690    1.91849246529528
N         8.61303342052496    6.63797103867957   12.69496981262257
N         6.60564402939637    8.10361000257806   13.93403008117270
S         4.82727405549335    7.33713271446496    5.18551789891360
S         2.46058050246225    9.07541339384978    6.64525747275175
S         3.20537760629381    7.09317545392883    2.77722487355094
S         0.79390327066707    8.86271996222292    4.26352300819443
S         6.56307328001531    7.35269311690751    7.97801395266864
S         4.20111137903940    9.09249853796125    9.44002463150845
S         8.26983037583220    7.63392419717989   10.31975728629767
S         5.85537739993412    9.40819783143850   11.81556604397110

