47
CSD_code = KAKZUS | q = 0 | S = 0 | Stoichiometry = C20H16ClMnN2O7 | MND = 6
Mn        1.83667148226436    5.14975512859367    4.00775047707526
Cl       -0.54504402041401    7.06861895817658    3.54254711521697
O         0.35262783731261    6.56481204449525    4.58366041748905
O        -1.61060043360688    7.72862486722190    4.17593225798997
O         0.21033924161123    7.95712794293418    2.73364874621372
O        -0.98701789167949    5.96312426372614    2.77548796372751
O         2.63510728229772    5.25123667759131    5.59404092878750
C         2.83746750040822    6.29508240870051    6.33386220275254
C         2.86568845984239    6.18625956177873    7.73805974087884
H         2.66072520072356    5.22034196777293    8.17498024580195
C         3.10540492141362    7.28530066803313    8.52609621085728
H         3.09849038003835    7.18325161667850    9.60129668863039
C         3.35479655385486    8.53403868677163    7.95301608794120
H         3.54278803531882    9.38763769120275    8.58550228163841
C         3.35227450334215    8.66854228410810    6.58686742129588
H         3.54363037223123    9.63090515860515    6.13452801161610
C         3.09661278452344    7.57120601296365    5.74844237963122
C         3.09069637139235    7.73188432795422    4.33652565123221
H         3.26034242063636    8.74129507753876    3.96549509401570
N         2.88981367362369    6.77133363943563    3.48299729597773
C         2.92779516521727    7.04602276641368    2.12060612568428
C         3.64541017495373    8.07194156572579    1.51373424189321
H         4.30840640684089    8.69343504736692    2.09622363219033
C         3.51707953351606    8.28767261902948    0.15498640245158
H         4.06921070905649    9.08663835440867   -0.31548201699730
C         2.66098032642211    7.49797474095018   -0.59812858803743
H         2.53307359266743    7.69793503606900   -1.65101430650646
C         1.97093662894490    6.45202428686558   -0.01593726101820
H         1.29439349916157    5.86883282968890   -0.61995846735950
C         2.13264150180516    6.17915932641891    1.34185788777167
N         1.56730646924369    5.13318524662693    2.06078104399998
C         0.99680892425992    4.13850960137533    1.42514358840108
H         1.05233353230825    4.11427068357769    0.33905678789200
C         0.28649410441891    3.07215205448912    2.01709162698898
C        -0.31689095841470    2.08723972646255    1.20796398145640
H        -0.19682150090097    2.15929696194439    0.13654641787617
C        -1.04263423277467    1.06250639987973    1.75109008140660
H        -1.49590185575523    0.31633225821717    1.11718737535512
C        -1.21044211292770    0.98718145120819    3.14100026904194
H        -1.79018248088762    0.17970646443648    3.56334079082617
C        -0.65581793951699    1.92809922177928    3.96461195729827
H        -0.78824160010937    1.88722121325101    5.03540385475462
C         0.10809159574420    2.99973423747789    3.43960621344514
O         0.61046923819985    3.89334373151236    4.20819424602779
O         3.38479467491141    3.49980684030941    3.67264604854604
H         3.95648371689366    3.50106107070517    4.45223100208820
H         2.90410821158921    2.66203727952789    3.68087984575334

