42
CSD_code = KAKZOM | q = 0 | S = 0 | Stoichiometry = C21H14MnN3O2S | MND = 5
Mn       -0.02044240406629    1.88588259990492    7.10477536431921
S         2.04018785591194    5.51848984894683    5.26563049674133
O         0.59252591119211    0.32240545493045    6.95375237548710
O        -0.06566875752853    2.23610708927534    8.82360501740221
N        -0.40442136166571    1.59438049585458    4.97053790080100
N        -1.55614168826257    3.02816446774228    6.78506433699585
N         1.10694759196391    3.31772619105566    6.64155133290902
C         1.12333001568821   -0.52789305099821    6.12458934409146
C         1.82297324398816   -1.65450652881396    6.58902866302276
C         2.41791643071050   -2.52261032544347    5.70552565611805
C         2.34182489219579   -2.29868850907431    4.32890608852835
C         1.66992856350419   -1.20302229670110    3.84771214251453
C         1.03857818879256   -0.29732957975810    4.71662055071934
C         0.33959712069757    0.83390256393346    4.21618939265045
C        -1.20851890739567    2.59932903110560    4.47279559115598
C        -1.48828130925146    2.84732568832336    3.12576537011147
C        -2.28031415398543    3.91755210946113    2.76886429494799
C        -2.80762454036334    4.75691656233992    3.74262339114081
C        -2.58505219248444    4.50266004866947    5.08053159657263
C        -1.81710489235887    3.40356214325454    5.46859767902293
C        -2.37028585917970    3.45206638274541    7.74200069622235
C        -2.15795437421567    3.30562431846661    9.12310587424600
C        -3.10620287009053    3.79448601310794   10.05169034271795
C        -2.93315451124836    3.63101213186301   11.39617037487321
C        -1.79451651539910    2.96844486049081   11.88325987832749
C        -0.97955634352285    2.65203458179706    9.62417354536636
C        -0.84242396069774    2.49395575192709   11.02505833017125
C         1.47696065466667    4.26754222020077    6.03802450556173
H         1.88510380266893   -1.81042423699873    7.65626094780419
H         2.95228549165796   -3.38307492634608    6.07913367348111
H         2.81516364361754   -2.98853398337011    3.64755311954430
H         1.60275934994619   -1.02802920298669    2.78365096300169
H         0.43789684190338    1.03488788095587    3.14982768770250
H        -1.08081293414732    2.21095403682738    2.35604989769722
H        -2.47574066581340    4.11456755582666    1.72598141831445
H        -3.39469573466169    5.61459908350722    3.45270488124713
H        -2.98241812618305    5.17996785461796    5.82043908631502
H        -3.29736785901923    3.93909311968489    7.44855124224875
H        -3.97865156662794    4.30599920112988    9.67063531087923
H        -3.66718938790396    4.00824654509325   12.09144023466435
H        -1.67012642906346    2.84049328512112   12.94825486084057
H         0.04208774603113    1.99083352232568   11.38666654351991

