52
CSD_code = KALCUX | q = 0 | S = 0 | Stoichiometry = C25H20Cl2FeN4 | MND = 5
Fe        4.18183418827210    4.75475705381031    3.24211039773501
N         5.12698642261028    5.97019648301073    2.03388617945364
Cl        6.02822206816397    3.79194034286023    3.42764154171675
C         4.24837046111085    5.15159950447813   -0.10109883906355
Cl        2.99735353066741    6.42073614277691    3.69184179712272
N         3.19897975541863    3.51019870486588    4.33665565423186
N         3.33033563181560    3.90295657921855    1.80616960846437
N         5.86575164155492    7.01128553512544    0.23572328294693
H         6.00019711104309    7.25545646382149   -0.72977888701298
C         5.05954932554220    6.01915229087170    0.72124136106358
C         3.41812696277810    4.13239211311577    0.45442184707655
C         4.29393498050718    5.33442912914117   -1.48290971409823
H         4.92214041022520    6.10405905428535   -1.90312538760260
C         2.74769639152878    3.56863589800350   -1.84919406859337
H         2.15924539772546    2.94478942475436   -2.50481152303492
C         3.55365762506579    4.55490143027204   -2.35654216211851
H         3.61654680548180    4.72671718801747   -3.41984059457513
C         7.78115901703394    9.02246394277944    2.67315975230712
H         8.48160021669585    9.83448943998597    2.79626658300623
C         2.66647112463244    3.34321030698023   -0.46733665438725
C         6.47514088384675    7.62076826480742    1.30058039033009
C         1.74561204341760    2.09083074913269    1.34896296391752
H         1.12139031952394    1.31915578313452    1.77105834820433
C         5.99567295258771    6.94747433666636    2.44124652367788
C         2.50278303357814    2.89228433151661    2.22254745188397
C         1.82030756972685    2.30970597687003    0.01257603951423
H         1.25747933588011    1.72238433042793   -0.69552186488617
C         3.18047683572730    3.36559966836665    5.74493329020597
C         2.46221356656557    2.71112647111470    3.62107136454937
H         1.84777952625656    1.93848128636069    4.07280584106859
C         7.37565757857001    8.66982766494787    1.40148250993411
H         7.74162153280763    9.18575474650839    0.52715498440310
C         1.10390771505348    4.80760281757177    5.83867040612802
H         0.32682713578085    5.04590494962418    6.56071003295836
H         0.66352376127523    4.23819524583921    5.02120963159642
H         1.48644257419199    5.73412452984880    5.41527575379511
C         4.11041492007339    2.45711778047049    7.76262078028432
H         4.83207414459045    1.81751046332530    8.24963266206547
C         6.41409609103901    7.31346035172811    3.71599453354594
H         6.04203302815793    6.79159613391009    4.58792920614889
C         2.20379562465989    4.03557616543534    6.49674107709311
C         7.30979740502289    8.35680659708783    3.80846328007306
H         7.65955070623154    8.67268790444868    4.77928101343507
C         4.10089746567217    2.51831622599871    6.37484556678979
C         2.24957747740941    3.94654724311332    7.88042894257615
H         1.50984053885062    4.47630639270509    8.46274266306604
C         3.21216097798056    3.18549767114449    8.51676977094133
H         3.23992333236780    3.13516478547287    9.59514236470824
C         5.04927813912139    1.65617247843103    5.60190619496293
H         5.97996102379805    2.18813924514179    5.41229630381323
H         4.63619851362793    1.37710346146797    4.63519682316609
H         5.27670517873493    0.75410891919769    6.16686497540141

