49
CSD_code = KALDIK | q = 0 | S = 0 | Stoichiometry = C24H18N2O2S2Zn | MND = 4
Zn        1.83291418786457    2.56563455200715    3.66237392329307
S         1.25739109566164    1.07206878644967    1.90511647290160
S         1.36103738222417    4.56787388656444    4.73753236297753
O         5.08394584818336   -3.19155852729529    3.34275988776174
H         4.71131101388707   -3.78056800735153    4.00984743993109
O         1.63354649348352    8.20564500500417    0.08375164429103
H         1.27924257552289    7.78821809787304   -0.71029125532084
C         2.38101594991495   -0.20704299948418    2.34381304598839
C         2.07762137633039   -1.09891569213858    3.36592592827053
H         1.14162071641716   -0.99835995872912    3.89621162197711
C         2.96386267831808   -2.10253026987845    3.70266584866723
H         2.72176079363375   -2.79208675939400    4.50196926407041
C         4.16482361571172   -2.23503963372391    3.01551731645380
C         4.45722214031961   -1.36649703764978    1.97010850165347
H         5.38211533837245   -1.49438478712222    1.43006502126839
C         3.57052284094592   -0.36273592978263    1.63841042906060
H         3.78790083386562    0.30758617954447    0.81985720046098
C         1.42971660720323    5.60764616831598    3.32056830644683
C         1.01959105405726    5.18036662976229    2.06320167247314
H         0.63729257336271    4.17405625400711    1.92759594717768
C         1.08400469462795    6.03477788121723    0.97714627326023
H         0.76379924307516    5.68667586634840    0.00309078276890
C         1.54741484142271    7.33476380661323    1.13291420973857
C         1.94432901126640    7.77115119090000    2.39353982461676
H         2.29600383864419    8.78446016624786    2.50580611063247
C         1.88404779441812    6.91631753213923    3.47340060166897
H         2.18818543396447    7.25193086198744    4.45240856001648
N         3.11898986816945    1.37558206544598    4.97302390234740
C         2.77746693298056    0.66747718946305    6.02579507292514
H         1.80868075061634    0.88770251495593    6.45255158445160
C         3.60228651412587   -0.31101148585071    6.58397315467271
H         3.27252992555510   -0.85930564338784    7.45209608208098
C         4.82250682442123   -0.55822073757526    6.00246929895838
H         5.48802375864559   -1.31420380488866    6.39380031366649
C         5.21416801921828    0.18935533995890    4.88109909003962
C         4.31389316320766    1.16602627450995    4.39838593116951
C         4.68256943861708    1.96214534245967    3.26314116585868
C         5.93799268167105    1.74878742209395    2.64916957991286
C         6.26541657867843    2.54851917022190    1.54345028515886
H         7.21478221040001    2.40846242685523    1.04717417013803
C         5.36896933566482    3.49841442446452    1.11351209591490
H         5.58727908673683    4.13448028327802    0.27064255366794
C         4.15489166744546    3.63565538938895    1.78809262817265
H         3.42785892647616    4.37497870538126    1.48010281486365
C         6.46424267198076   -0.00465261835081    4.22821439741850
H         7.12391711276105   -0.77003614369215    4.60824571894750
C         6.81085792594355    0.74436652726905    3.15598866871236
H         7.75780891093962    0.59587265586027    2.65850841545398
N         3.82212772306765    2.89505143967669    2.82375613298985

