85
CSD_code = KALFEJ | q = 0 | S = 0 | Stoichiometry = C42H28N6NiO8 | MND = 6
Ni        5.62551185084107   -1.94204262522057   13.32667072802042
O         3.92639521803742   -4.79159968937969   13.63622201301616
O         5.12032640468481   -3.21285840829542   14.68175020538679
O         2.76097592076846   -3.72349753555578   11.58631073165120
O         3.46244067412773   -1.80070648985086   12.48723236476487
H         3.19207140946087   -4.14142645411604   12.41264432107648
N         4.40699566002434   -7.95260010830517   20.41296554158803
N         0.98288370798719    0.74018266386475    5.86481679302003
N         6.14245280384566   -3.35650607392799   12.10929871532906
C         4.48672727462466   -4.30134434705725   14.62651138631571
C         4.45902348687472   -5.08694712866227   15.91752198912608
C         4.04668773717999   -6.41542542593588   15.89185191462736
H         3.73959624122772   -6.84341071533272   14.94952341378410
C         4.03166592280306   -7.16215786518147   17.05181794502016
H         3.71308017187239   -8.19408245839972   17.04105988958318
C         4.43203194572085   -6.57597345294715   18.25404967597679
C         4.84110540354762   -5.24137770901593   18.28506576351892
H         5.14377977772385   -4.79736204252587   19.22246957159369
C         4.85175169760960   -4.50463449671634   17.11853013261485
H         5.15591541488639   -3.46909555771194   17.12841542420342
C         4.41847095003815   -7.33612434541944   19.44666312723122
C         2.94416396542012   -2.42707038677957   11.57663951903873
C         2.48614573342293   -1.74994368485858   10.33078130229625
C         1.58064920157867   -2.35909879258439    9.46574118756142
H         1.19367549429421   -3.33595233636400    9.70981036124292
C         1.18552805700471   -1.71057292594128    8.31348393036004
H         0.47967577873333   -2.16911645418441    7.63699334256719
C         1.70593422070145   -0.44955286313234    8.01415391386465
C         2.62050104590369    0.16073630480418    8.87563498859645
H         3.02228639941111    1.13284670403959    8.62984727534687
C         3.00049492460292   -0.48907331833431   10.03056245580836
H         3.71490380900251   -0.04316177166270   10.70634305665495
C         1.30692305926705    0.21000408041993    6.82765149749613
C         6.82040163590895   -4.41521721734715   12.54473266100210
H         7.16191687960109   -4.38822533492930   13.56913080133324
C         7.09908399168322   -5.50684924080073   11.73993598908858
H         7.64482905176455   -6.34457144880132   12.14423126502650
C         6.66286733458360   -5.50408836089923   10.42593707580212
H         6.84984807089411   -6.34608292756058    9.77690107184254
C         5.98898484561067   -4.38591953359460    9.96389754392776
H         5.64129624372393   -4.32388134564138    8.94485865170444
C         5.75648752702539   -3.33715685478750   10.83624116483922
H         5.24763630502550   -2.44661262494159   10.49421610258137
O         7.32658450167103    0.90626932171774   13.01501315235138
O         6.13031976361889   -0.67187937296672   11.97118915781173
O         8.48313508837891   -0.15896995189098   15.07176759893058
O         7.78707790497400   -2.08312836581750   14.16972902762795
H         8.05458018961872    0.25770218016021   14.24335114605581
N         6.83387441471061    4.06991184413624    6.24041745920741
N        10.26275482248206   -4.62258343313063   20.79367608131041
N         5.10750571951792   -0.52770885243369   14.54457873480371
C         6.76489749086324    0.41612494182013   12.02549868122810
C         6.79102222690778    1.20167140378420   10.73433477217273
C         7.20725635553945    2.52896820834389   10.75872922927891
H         7.51902470533497    2.95587256847252   11.69999694509645
C         7.22016473830945    3.27589697745101    9.59886862973364
H         7.54179402500709    4.30688318551167    9.60861393430415
C         6.81347543036742    2.69121905648783    8.39800507928353
C         6.40063618929500    1.35777242927432    8.36820310817838
H         6.09303550458837    0.91484892795430    7.43188624007540
C         6.39240923478803    0.62073178078187    9.53459527123380
H         6.08541422764359   -0.41397770084802    9.52550887566929
C         6.82455118601964    3.45209527344091    7.20583075542195
C         8.30256849231353   -1.45572079243019   15.08120618299257
C         8.75986187728756   -2.13217059426891   16.32771022153731
C         9.66280576083324   -1.52149650629563   17.19433706278966
H        10.04800420480793   -0.54366625544638   16.95134355530611
C        10.05796812745703   -2.16987996246896   18.34667694285063
H        10.76185011411101   -1.71012126243499   19.02439391695004
C         9.54029586597734   -3.43239205127272   18.64438018840636
C         8.62823642451339   -4.04422332689658   17.78131362988167
H         8.22859795750722   -5.01752801577845   18.02585521921378
C         8.24806406956442   -3.39445191898451   16.62643311379606
H         7.53566413775530   -3.84164944431182   15.94937497868695
C         9.93918969049698   -4.09201899953043   19.83088735212314
C         4.43036971898393    0.53147983201721   14.10904730127644
H         4.09504820557795    0.50794810615958   13.08254663782922
C         4.14477217562909    1.61960038568879   14.91618256261043
H         3.59990794308907    2.45778988717242   14.51167408448670
C         4.57265342160342    1.61258612765643   16.23289229758215
H         4.37944521915038    2.45146507449574   16.88414154474524
C         5.24655229137065    0.49427383057630   16.69457139182876
H         5.58820378451383    0.42910227962597   17.71545799189235
C         5.48665622407322   -0.55061944425604   15.81963849741128
H         5.99594732469635   -1.44107677169220   16.16122464059514

