53
CSD_code = KALHOX | q = 0 | S = 0 | Stoichiometry = C18H24MoN4O6 | MND = 6
Mo        3.21125069923960    0.48381249387979   10.08389992018565
O         7.78377469480743    3.94233041514273   12.46208202650634
H         7.46733864156499    4.41855122351133   13.23749372981552
O         1.82097574341841   -0.39463870260387   10.20152786812421
O         3.34347261962874    1.04877481050461   11.84682776539338
N         4.60287404675557    2.44684953875456   10.03327992811569
N         5.28541151449718    0.86118880112817   14.84453313022850
C         3.89925746585146    3.66758910785209   10.41531684654499
H         4.46167273584545    4.57055158058897   10.13065084240149
H         3.78323526780371    3.66808462397045   11.50621273846660
C         6.40071431313362    1.45941575053736   14.45916186124655
H         7.16415645388404    1.55190264927248   15.22045689373221
C         4.39747023875408    1.18442399907553   12.64342411072328
C         5.59176007718984    1.78920720000017   12.22902392173218
C         6.62044332195654    1.92301201850736   13.17134295391103
C         3.06157576606234    0.00465822130580   14.40280002394749
H         3.25032307618737   -0.54794228997025   15.31762796342568
H         2.74250070676274   -0.66889210508276   13.60417282881454
H         2.25873779117427    0.72043153425146   14.57940107026640
C         7.93292038873391    2.57573104489288   12.81122446773257
H         8.63423376034369    2.47293701984609   13.64850278746154
H         8.37275394966997    2.09499900414505   11.93351288922791
C         4.30613711028694    0.71526825892400   13.97634199374719
C         5.82919139818706    2.22425398219558   10.80233832859246
H         6.44979918042317    3.13209374487772   10.80016762907257
H         6.37874054058623    1.41629254946820   10.30501683524530
H         4.86405420848156    2.51214637339621    9.04808822010396
O        -1.36144616262536    3.94227354555827    7.70600507964215
H        -1.04507869426530    4.41850641588834    6.93057024926944
O         3.07896281037295    1.04883480116463    8.32099235463949
N         1.81963752719377    2.44687153642183   10.13464530469601
N         1.13682442871876    0.86111965064943    5.32342509750908
C         2.52327279634804    3.66760309374728    9.75261310967299
H         1.96088314497136    4.57057455099987   10.03730369686020
H         2.63927827695603    3.66811556694170    8.66171551427324
C         0.02154327082056    1.45935004571547    5.70885323754841
H        -0.74195544485581    1.55179434584629    4.94760969535559
C         2.02491178708171    1.18445121926419    7.52446084016750
C         0.83064479292423    1.78923272278576    7.93892568229816
C        -0.19810539986838    1.92298767856753    6.99667103731585
C         3.36069740681886    0.00461966919744    5.76505066213508
H         3.17189692455614   -0.54802247414917    4.85025340095641
H         3.67981590158487   -0.66889341982308    6.56369456542438
H         4.16353032917953    0.72038902224378    5.58837041313579
C        -1.51057782813461    2.57567132477482    7.35686697730709
H        -2.21194066763938    2.47285750531525    6.51963095022467
H        -1.95034784118276    2.09492766279872    8.23460484809885
C         2.11616049129138    0.71524442453392    6.19155392720429
C         0.59329137169557    2.22430410212806    9.36561780126680
H        -0.02729604836780    3.13215988102230    9.36779795137394
H         0.04373038423342    1.41636422341908    9.86296533805801
H         1.55847025054746    2.51216761398744   11.11984186560862
O         4.60152048041437   -0.39463755737065    9.96623082519354

