58
CSD_code = KALLIT | q = 0 | S = 0 | Stoichiometry = C25H27Cl2N3Zn | MND = 5
Zn       -1.13183085744303    2.49481870124186   10.06650822524185
Cl       -0.97927347783822    2.04378850349180    7.84581972200421
Cl       -0.71076654037521    1.10822655946533   11.71753832829005
N         0.69284984547948    3.81919011782918   10.19380646052282
N        -1.74356571458550    4.46742225467352    9.53238761994297
N        -3.39026959255771    2.55086110133844   10.17072322550954
C         0.56701412301992    4.93788275241801    9.60572048075755
C        -0.77970179800194    5.27084805514871    9.10961770229405
C        -1.05304468219974    6.31026684917413    8.22104827569619
H        -0.27159432393052    6.96232608374700    7.86727586896219
C        -2.35553080804024    6.46979079352041    7.77633989087268
H        -2.59674245233823    7.25894455335142    7.07987500880747
C        -3.34298739238506    5.59915033918357    8.20827071750737
H        -4.35263886746258    5.69506464375974    7.84443239661720
C        -2.98850600249098    4.58468277722868    9.09711880469362
C        -3.91455559213732    3.54528324464890    9.57986094190859
C         1.67609977436286    5.91964983963938    9.38825390782158
H         2.55975091118008    5.61284218734862    9.94388715602374
H         1.37201229829131    6.91331785579863    9.71281148883189
H         1.92888932680620    5.96692837715237    8.32965579204684
C        -5.38224511399330    3.72641067890201    9.34661501809722
H        -5.94249153974796    2.96747073066002    9.88864086290428
H        -5.60479257932930    3.63237811848020    8.28435394458844
H        -5.69923273874632    4.71423949393683    9.67687815862415
C         1.90684677615881    3.34647524548835   10.71033301475748
C         2.86646577249092    2.77152477587140    9.87132893208147
C         4.01861523841431    2.25438568958576   10.44734968434067
H         4.76220001191567    1.80012568174723    9.80890205745602
C         4.22178362250188    2.30900015353693   11.81301586696552
H         5.12412930430030    1.90055407665894   12.24252830244274
C         3.26147623361842    2.87899187538598   12.62924891586185
H         3.41204840485565    2.91532902333880   13.69798899294294
C         2.09270312818438    3.39739618236993   12.09673331422925
C         2.65497210116152    2.69083537591809    8.38982083078310
H         1.62549663474006    2.42739950935675    8.15455275289943
H         3.31147889870447    1.93974500431162    7.95766367398407
H         2.87536406217284    3.64689645830340    7.91178487753711
C         1.03749224163589    3.99893964895376   12.97076837685145
H         1.37459046323016    4.04319283883019   14.00279504904895
H         0.14176863389492    3.37990671763415   12.92087506691195
H         0.77411757290422    5.00419682587285   12.64074558272113
C        -4.12513325561601    1.47029802892972   10.67630668315216
C        -4.57839531824101    0.45409740701510    9.82926083443987
C        -5.23506010966745   -0.62974334267738   10.39534014321443
H        -5.58030572628532   -1.42508194717852    9.75106871689951
C        -5.44488581421469   -0.70621176620135   11.75904123018085
H        -5.95650443331151   -1.55847153777348   12.18029199750880
C        -4.98839150911269    0.30636824874917   12.58322570830926
H        -5.14270170646934    0.24643896672451   13.65031014708142
C        -4.31938720800927    1.40081461637362   12.06069738727738
C        -4.34364674844559    0.51425627443019    8.35030914387622
H        -3.33989567800462    0.87139859398455    8.12750153071977
H        -5.05449010092067    1.18810421976027    7.86943487767967
H        -4.46507618189364   -0.47239631127835    7.91067856356049
C        -3.80395745923699    2.49422990403286   12.94288874634278
H        -4.16750032680773    3.46987852476056   12.61925850535352
H        -2.71518051325129    2.50456412266557   12.89418733362376
H        -4.10608321692828    2.32927630234581   13.97342316040404

