45
CSD_code = KALNOB | q = 0 | S = 0 | Stoichiometry = C20H16FeN2O6 | MND = 6
Fe        6.51103271040621    6.38954554024128   -0.00005696235617
O         7.29485655928061    6.43010461917711    1.83424227208604
O         7.23424643361042    5.25475789152680    3.73258111933851
O         5.89552501739010    8.51220174162635    0.51947689290017
N         4.98879712442863    5.62942648371687    1.05503142655822
C         5.40192197938570    5.13526950533241    2.21302313934162
C         4.60577114649048    4.35354638379514    3.06149653844087
H         5.04898415662696    3.99984309943298    3.97905566856315
C         3.31929489607445    4.07858502192660    2.69142121539940
H         2.67425973154705    3.46132740022717    3.29960503738720
C         2.81721601549747    4.64667505339723    1.50129021084544
C         1.48072804573690    4.46896532482182    1.09169737105338
H         0.83267086686921    3.85981675041482    1.70522503945219
C         1.01398681584498    5.06411978036002   -0.04744369210985
H        -0.01266553083177    4.92589691296357   -0.35221412299767
C         1.86710522111230    5.86441614341432   -0.82091659311549
H         1.48602461169217    6.33895243668353   -1.71208570419808
C         3.17367348570912    6.05150854385278   -0.45806270161830
H         3.83998388632045    6.65201837084818   -1.05058297826450
C         3.68956216849566    5.44131566963029    0.70034034271696
C         6.77865357872927    5.61076383217984    2.66134882699588
H         6.33290857335902    8.52124398615923    1.38073636810574
H         6.28495118809611    9.21719655848862   -0.00581410327243
O         5.72709940755270    6.34932480470770   -1.83447796946964
O         5.78764751690297    7.52541718530207   -3.73234894456603
O         7.12653366741359    4.26712098205712   -0.51990253165554
N         8.03323697586494    7.14964617643033   -1.05509790627961
C         7.62003818548885    7.64439741438291   -2.21277953642471
C         8.41613677380040    8.42663780989031   -3.06084436830638
H         7.97286167440738    8.78087502804670   -3.97816426803318
C         9.70262292596732    8.70138038803602   -2.69063873549633
H        10.34755692839823    9.31908976803039   -3.29846469170363
C        10.20483952111449    8.13245768260757   -1.50095422890402
C        11.54139168806812    8.30967671100349   -1.09141701559033
H        12.18948186146256    8.91914624889613   -1.70458057783508
C        12.00818620534527    7.71363676588122    0.04725501786673
H        13.03491261987813    7.85145497109387    0.35195349901890
C        11.15504712291774    6.91301252785047    0.82034809502925
H        11.53619267861270    6.43788250221230    1.71117706311129
C         9.84839692343498    6.72638722507515    0.45755791271764
H         9.18200619238302    6.12568039260255    1.04978187658009
C         9.33248908744763    7.33739960220274   -0.70040188730745
C         6.24344609204156    7.16875955224259   -2.66142669326485
H         6.68917269674970    4.25833463486774   -1.38107777881773
H         6.73621457287458    3.56228457636744    0.00510905808098

