116
CSD_code = KALSEY | q = 1 | S = 0 | Stoichiometry = C54H57AuN2OP(1+) | MND = 2
Au       -2.46626224230950    5.10274500727603    4.23222141390021
P        -5.66359332983547    8.38475965061931    3.55351350608858
C        -1.11392326121837    3.61829130796469    4.47317055558392
N        -1.28768702950364    2.32254780808880    4.77802804551055
C        -0.08190969281283    1.67228651276276    4.81910069946672
H        -0.00525624717483    0.62937459830222    5.04570608686973
C         0.86782316987018    2.59421645324467    4.53122749440684
H         1.93189981348898    2.50998847479727    4.45744658579991
N         0.21185290260549    3.77753488165476    4.32321204790682
C        -2.54312285050176    1.69995451309851    5.02175356320377
C        -2.98216391343011    1.56585453634970    6.34095224480239
C        -4.19036512302088    0.91886761012520    6.56130583572653
H        -4.55847189882462    0.80181376715785    7.56781086046149
C        -4.92531255177797    0.41447980330608    5.50454188535229
H        -5.85070730425300   -0.10912769154807    5.69675301625256
C        -4.48289600329557    0.57698269979866    4.20543895279383
H        -5.07330257111538    0.19111929616979    3.38943116392952
C        -3.28595109912186    1.22825233971974    3.93807878350344
C        -2.19683566309714    2.15036655060756    7.49153044424505
H        -1.18522446089471    2.39307474237390    7.15009899411239
C        -2.06278135270258    1.17232339132140    8.65899013390201
H        -1.37616468377815    1.57571771335832    9.39941014764342
H        -3.01824330319056    1.00270259100688    9.14686136156889
H        -1.67506163595636    0.21583009036930    8.31547108930216
C        -2.86703531724877    3.45205698876447    7.94251108004525
H        -2.31113940605280    3.89355496195802    8.76592900361590
H        -2.90139729820462    4.16882738464749    7.12257348892563
H        -3.88464907240619    3.26136574192231    8.27439162565128
C        -2.82272008249269    1.41703654022298    2.51340271721305
H        -1.85689011055890    1.93206535983371    2.51236691074917
C        -2.63331260303246    0.06830629998462    1.81623448268167
H        -1.93807409653369   -0.55648553396921    2.37315590980889
H        -3.57666538533218   -0.46331729441086    1.72892236684759
H        -2.23439131414552    0.22010912185634    0.81614713904096
C        -3.81531483768621    2.29695612630217    1.74973894253376
H        -3.92818897853057    3.26078117493749    2.24450503216420
H        -3.45788104099325    2.46704303836161    0.73705369315882
H        -4.79225809141592    1.82480034644674    1.69357963230139
C         0.82274038335982    5.01593282473424    3.98118473336630
C         1.02603870245172    5.31633638515501    2.63226975340409
C         1.60257171454786    6.53982070839315    2.31808955345659
H         1.76632275926596    6.80330826262665    1.28545673070839
C         1.96920637202211    7.42587808519701    3.31329757162675
H         2.42352786509685    8.36937970155549    3.05097119629901
C         1.75695345979911    7.11025471366513    4.64174333075438
H         2.04200536809353    7.81384214998978    5.40770495060468
C         1.17805241745454    5.90008505461242    5.00192191834891
C         0.60362684226941    4.36496093997300    1.53760613985198
H         0.29683427494501    3.41358674229422    1.98435627896265
C         1.75543057375091    4.07044044254711    0.57531094939450
H         1.45851790180098    3.29882171716524   -0.13099726006453
H         2.03404056659366    4.95546457452527    0.01073294070686
H         2.62959369882726    3.72060832058549    1.12003284634484
C        -0.60128927280327    4.94236874882639    0.78979649077852
H        -1.43136023937416    5.10827569278107    1.47664835853406
H        -0.34589204977683    5.89079939108221    0.32420088003575
H        -0.92489962018613    4.25258561661202    0.01410156345651
C         0.92810389682722    5.57663809277248    6.45586042789432
H         0.50971951379512    4.56806306706405    6.53543728838251
C         2.23235802139354    5.60427199574917    7.25503017465487
H         2.04497298012813    5.29950214466938    8.28181889652775
H         2.96182532348960    4.92362931304338    6.82119896303495
H         2.66183230625929    6.60193738216473    7.27000941917940
C        -0.09567114696769    6.55170364330300    7.04274058771628
H        -0.30225810680299    6.29574708243174    8.07899099539096
H         0.27598639488071    7.57228325143137    7.00881638433872
H        -1.02882735665886    6.50666535316336    6.48188049272252
C        -3.99969195569653    9.03941990602812    3.41084494137425
C        -3.57395685322936   10.31918293135126    3.11965081019004
H        -4.28346413436606   11.11518893035443    2.94563551496286
C        -2.20881632504220   10.56335253352924    3.05089698111445
H        -1.85309683874796   11.55675749041500    2.82548451050741
C        -1.30716409992977    9.53363856904881    3.26745744332531
H        -0.24724225577578    9.72996988676894    3.20913648260192
C        -1.74075165126749    8.24912159601117    3.55692462667386
H        -1.02092616138489    7.46044784935842    3.71791495569265
C        -3.09993191921686    7.97637671586107    3.63721402044474
C        -3.70199301777607    6.67310610959991    3.93304494644119
C        -5.06452556008947    6.70866327013046    3.92969201405615
C        -6.05631095763212    5.67698481620043    4.17795783014664
C        -7.40835891874802    5.97808696334065    3.97967700904302
H        -7.68060254845160    6.97257618312200    3.63769081212119
C        -8.39851439538367    5.05367987214157    4.20172776597934
H        -9.43692376104092    5.29571223252898    4.04230315628432
C        -8.07364307155451    3.76721611018548    4.64430047308376
C        -6.73380102138061    3.45503128113188    4.86080722983082
H        -6.43831616895728    2.47980909207964    5.21181791059939
C        -5.74959930095780    4.39520162009513    4.63164963314829
H        -4.71963343530782    4.12712212133177    4.81431543976464
O        -9.11266928963225    2.92180803139025    4.83295460412068
C        -8.84862213800927    1.60814614324870    5.26759065975076
H        -9.81940325560599    1.12063058532211    5.33678581100578
H        -8.22181652445216    1.06920343261153    4.55025736000595
H        -8.36856852255930    1.60091374168910    6.25123489420969
C        -6.52439120605308    9.24492768219890    4.88525499045628
C        -6.75287899402497    8.60222375827753    6.09703490752201
H        -6.45356927197949    7.57155099152173    6.22545530158973
C        -7.37152955708920    9.29237778976566    7.12441770990015
H        -7.55650325468943    8.79866846124951    8.06601803122987
C        -7.75227031599445   10.61273854042391    6.94559326867390
H        -8.23614657525689   11.14636461865676    7.74905990009538
C        -7.51327116909770   11.25386106667434    5.73908316786587
H        -7.80851090317325   12.28335497780060    5.60526055167339
C        -6.89651644420949   10.57504309552149    4.70499789907104
H        -6.70816897762130   11.06649056336858    3.76008943524885
C        -6.49699715166654    8.65497941995540    1.97411499602881
C        -7.81976567183255    9.07725336414132    1.89341588678277
H        -8.38670776835779    9.27412253073053    2.79352894000191
C        -8.40125905836527    9.24876111123701    0.65015944190849
H        -9.42504474228447    9.58315434944103    0.58041191110749
C        -7.67436354336739    8.99102576816582   -0.50156331222477
H        -8.13446977844318    9.12731120111087   -1.46799629054722
C        -6.36000447572110    8.55708440428162   -0.41724154716562
H        -5.79799551349852    8.35376115005394   -1.31587780454414
C        -5.76673918290561    8.38668245092961    0.81917861593797
H        -4.74153794015379    8.05006638651650    0.90175666928262

