122
CSD_code = KALSIC | q = 1 | S = 0 | Stoichiometry = C56H61AuN2OP(1+) | MND = 2
Au       10.95413056339711   15.81013150194950   12.41234076141564
P         7.60312250723741   14.08194673415230    9.73371595720832
C        12.35113151058390   16.67343976256876   13.59169189730233
N        12.22865341004070   17.36709961888853   14.73442690325609
C        13.45760163469722   17.78496122940414   15.17670325303866
H        13.57281705893682   18.35808008980841   16.07300887932361
C        14.36847445958065   17.33372462374722   14.28190120803225
H        15.43295960482238   17.43565413127117   14.24592145353575
N        13.66732146224677   16.65539504196555   13.32142475761550
C         9.65944364225908   14.91782659777550   11.14859023861857
C         8.29812934830291   14.97284433031732   11.15575596542936
C        11.00706831656903   17.63376785711536   15.41208621886153
C        10.19778165030657   18.68144972804974   14.97064373041520
C         9.04459218883001   18.95996931689868   15.69309161923625
H         8.40714786539459   19.77363193402693   15.38475992089148
C         8.70840512503344   18.21269685634311   16.80503298913383
H         7.81849011898155   18.45304816660436   17.36845328340987
C         9.50509462760015   17.15528824507413   17.20423812893264
H         9.21724338232206   16.56972081416501   18.06198521628493
C        10.67249916430233   16.84900775419616   16.51974431438730
C        10.54755025420681   19.50240985242252   13.75265212768181
H        11.47666690160646   19.12343089330219   13.31554351755429
C        10.77160737585056   20.96775015291632   14.13228041139261
H        11.07293226248605   21.53709072324624   13.25628640659676
H        11.55343158284735   21.05311169186296   14.88423500204960
H         9.86377132369993   21.41131778236391   14.53155243298026
C         9.45282667973425   19.36896038956357   12.69130839458948
H         9.73910231361609   19.91128718981259   11.79329267909986
H         8.50924967276599   19.77160139889040   13.04894379194654
H         9.30277254740175   18.32135720343262   12.43271735299755
C        11.52370749325262   15.66447659065561   16.91616237901966
H        12.54501069937826   15.82030741774823   16.55269940352060
C        11.60453656616385   15.46677737545365   18.42952012874360
H        12.36948451338431   14.72942443022239   18.66134080882944
H        10.66302355578016   15.10601185705435   18.83416365929633
H        11.86435891311451   16.39873410267196   18.92637089750217
C        10.96318571337127   14.40958221886792   16.23720984126553
H        11.56145932897118   13.54117667745730   16.50180040847788
H        10.97206367604784   14.52070948460524   15.15325688879204
H         9.93792277911118   14.23417518761851   16.55514719314002
C        14.22629453568954   16.01838008754544   12.17918776750214
C        14.53466139482163   14.65810140123451   12.24578138149629
C        15.06104669818109   14.05471322520005   11.11072911223355
H        15.31179030962192   13.00592475568521   11.13253833639661
C        15.26379780320860   14.78048599872862    9.95241472333406
H        15.67345138933300   14.29624180610990    9.07889521136528
C        14.94494282348053   16.12443819473991    9.90579024141720
H        15.10174273049937   16.67614849862459    8.99286121547299
C        14.42578565620204   16.77082750503113   11.01944631402598
C        14.29947288615243   13.85004282136795   13.50003012906455
H        13.89215983841270   14.50203223456835   14.27937038828354
C        15.61394007818083   13.26498505901476   14.02054567223998
H        15.44291310679126   12.74263012068480   14.95870448031354
H        16.34212255975794   14.05464360696667   14.19354534588211
H        16.03661514013461   12.56002293386166   13.31023054963275
C        13.27297630185318   12.74538241127875   13.23767651881031
H        13.07712267559634   12.19446386475223   14.15428139816770
H        13.63455820715655   12.04646106650179   12.48843712052646
H        12.33553259073487   13.17386215690343   12.88427778834548
C        14.05561199872032   18.23405135371706   10.95613916538780
H        13.81373086187816   18.58894792638390   11.96341214703123
C        15.21492393483574   19.08587287886506   10.43692251681338
H        14.96318866713681   20.14068413372605   10.51711313206760
H        15.42920023873256   18.86868747049902    9.39452315862305
H        16.11537450805105   18.90173169658539   11.01900596080239
C        12.80946080372506   18.41137478091234   10.08408516419472
H        11.97994351768547   17.82654874890172   10.48207032345837
H        13.00312376818714   18.08234560686361    9.06630076251562
H        12.51699062484134   19.45838410695295   10.05918225406276
C        10.17736967150606   14.10338913594206   10.04788152310324
C         9.21957061441961   13.46609779641110    9.22595254690022
C         9.59298989709036   12.63648632733974    8.18713283313764
H         8.85945385177539   12.14089601435169    7.57045777968188
C        10.94471104858168   12.42097285186682    7.95408974908471
H        11.24865849902654   11.76140120777635    7.15596183753406
C        11.89737753179785   13.05065260361827    8.73781643351847
H        12.94638806440981   12.88754233942837    8.54254192150920
C        11.52192728131352   13.88593337127216    9.77687565541505
H        12.27532605639576   14.37233475741078   10.37845442940607
C         7.37813472406285   15.57805753418175   12.10508092712488
C         6.05891141847297   15.82635863284115   11.71297026119445
H         5.75576480701909   15.59086360275394   10.69940597719135
C         5.14343998480151   16.38123435067025   12.57238122314342
H         4.12922637273326   16.57335817699811   12.26112237121565
C         5.51255503230218   16.71040282266102   13.88030240541269
C         6.81829571601260   16.45491432878761   14.29090916535737
H         7.14159120908280   16.68227609957178   15.29383498678063
C         7.72821282753358   15.89476134245599   13.41623383428679
H         8.73058028143211   15.69336896301026   13.76342873475102
O         4.54114255405911   17.25384684489686   14.65033760273288
C         4.84991405804462   17.62802065137514   15.97246970259748
H         3.92570494033285   18.02434108479005   16.38920364163795
H         5.62149181172705   18.40381671246033   15.99506494686686
H         5.17647117573172   16.76972703063940   16.56771165890851
C         7.07693678340400   15.19012982835608    8.39688713436522
C         6.58057865922108   14.73120082033549    7.17355379785513
C         6.25153339101848   15.67638444458021    6.20710948338210
H         5.85572676276422   15.33389155871893    5.26232235041646
C         6.42843309161512   17.02913046829715    6.42864727130152
H         6.16460944942073   17.73826868676720    5.65937718406387
C         6.95060724301423   17.47163096285406    7.63404344399678
H         7.10183570749240   18.52505730216076    7.81070120327145
C         7.27426035839323   16.55499012141947    8.61376640487510
H         7.67866138026162   16.89113037700828    9.55852917155293
C         6.39433113298311   13.28031941011885    6.86245608197651
H         5.34510808191846   13.06460018408770    6.66155304177574
H         6.72239864194692   12.64992017352145    7.68740181210015
H         6.95805047103953   13.01934078031045    5.96734845315135
C         6.33011317685595   12.88077047769509   10.18233459207165
C         6.63969317116031   11.77928247933777   10.98694549285129
C         5.60303318452503   10.92927283360501   11.35092958114622
H         5.82313342332310   10.07016921453054   11.96717188997696
C         4.30108605788688   11.16610177225079   10.94722213183990
H         3.51485109828521   10.49109697320616   11.24782170910693
C         4.00446038132589   12.27102388617487   10.16472504851300
H         2.98911151721715   12.46433730254679    9.85555374600850
C         5.01678949746350   13.12764814203852    9.78351530545702
H         4.79416483205718   13.99102811765995    9.17129873882723
C         8.03873089428632   11.51916269860239   11.44176568189072
H         8.05517150882417   10.75590116970292   12.21558708826486
H         8.48619179429503   12.43028129318017   11.84139609726890
H         8.65654143660110   11.17498052915645   10.61111521293022

