25
CSD_code = KALTEY | q = -1 | S = 0 | Stoichiometry = C12H8CoS4(1-) | MND = 4
Co        7.26813145099722   17.66728478823714    5.13049679098088
S         8.11186672871327   19.64185538908628    4.88736594936243
S         6.70394040055905   18.17161623777299    7.15501463615929
S         8.45395960850237   15.89476983477976    4.78440511786987
S         5.81348666153451   16.95844884610095    3.69692799890695
C         7.87631926987397   20.48121105154070    6.39321530677439
C         7.23166783007196   19.80593869549687    7.43447584293392
C         7.02884368393594   20.44489453482487    8.65369076848043
H         6.53028418997244   19.90878996241701    9.44795942420215
C         7.46390437424287   21.74227388525836    8.82928675545004
H         7.30675771606775   22.23856014778100    9.77744843011115
C         8.10360814805692   22.41486992425252    7.79252333468114
H         8.44122350861497   23.43219164523130    7.93764472336239
C         8.31008272867314   21.78995000160258    6.58001946406419
H         8.80532786218662   22.29748524382275    5.76518777097885
C         7.60631206514607   14.94204433418775    3.60058616744507
C         6.39528104510376   15.43094712965014    3.10037438503654
C         5.69141055191651   14.69698143931199    2.15074286814256
H         4.75833665418112   15.08934334625942    1.77359593401995
C         6.19096241798678   13.48955281037857    1.70813953188651
H         5.64372655303008   12.91930591554860    0.96967356159187
C         7.39503541259930   13.00222215026056    2.20736624509779
H         7.77974039649670   12.05427841738353    1.85610117983884
C         8.10107900441406   13.72280800519612    3.14841587352183
H         9.03731173712276   13.35917626361556    3.54594193910210

