68
CSD_code = KALTUN | q = 0 | S = 0 | Stoichiometry = C23H36ClF6MoN | MND = 5
C         2.47377332235260    5.86321298332875    2.07065229888325
C         2.25173314358951    6.86766158501395    1.10459202603954
H         2.25872880192640    7.89874521088568    1.42125859987756
C         2.01751034324224    6.53973397355774   -0.21531606746808
C         1.99717994393209    5.21857063053874   -0.64484717568901
H         1.81102972523448    4.97028630000444   -1.67704291455337
C         2.21133779120522    4.22327563637753    0.30302633120265
C         2.44896073452925    4.52164632600331    1.62849148743783
H         2.61320012905278    3.73223549290929    2.34543737642071
C         1.81967988844418    7.64278188337876   -1.21791918942744
C         2.19588271105094    2.79259530440005   -0.16039843302261
C         1.46758000306117    4.82427026787534    5.51055065240167
H         1.70318317099425    4.01085604817597    4.81326978260785
H         1.69829914384255    4.45181626551893    6.51954291521633
C        -0.04253501160328    5.05396873692903    5.44655368767555
C        -0.45226663885702    5.51633410164609    4.04503541440753
H        -1.53065582808043    5.65192179645090    3.99310411646187
H        -0.16594854223058    4.77577049015147    3.30041414350094
H         0.03154080561887    6.46129226443079    3.79365845012641
C        -0.46252601256475    6.10279168878094    6.48077496534834
H        -1.54373402588539    6.22812295232473    6.47708185481018
H        -0.00584123881232    7.06833291504687    6.25778868783034
H        -0.16057009997779    5.79716165328841    7.48198984691387
C        -0.76726565480430    3.73605840475860    5.76101473892619
H        -1.84506900158748    3.87807764554648    5.72151116521668
H        -0.50669284788157    3.37977335915131    6.75550734906735
H        -0.49777153875131    2.96810435838521    5.03937754131302
C         1.94214049345700    8.54290927703412    4.77576939709022
H         1.26945435779147    8.53018091138839    3.90814519829418
H         1.31819955025423    8.77038928541023    5.65283332531022
C         2.90061593345015    9.72257398468487    4.59587435254201
C         3.71775830282953    9.55876058071835    3.31039426606768
H         4.50642694084853   10.30713577213642    3.26560103695041
H         3.08201792233075    9.69585228208246    2.43826567756964
H         4.16951056936490    8.56574141661051    3.26492195149853
C         2.08686388614335   11.02281796045358    4.49820838085798
H         2.74727811575156   11.86932686141335    4.32268841502586
H         1.53716882257320   11.20417929080815    5.41952466350515
H         1.37376177365775   10.97091230030889    3.67823098422954
C         3.84893885778932    9.83465219143893    5.79371799965529
H         4.44944851061602   10.73950120794145    5.71535218462142
H         4.52567561318823    8.98016319204080    5.83309811451135
H         3.28869858332761    9.88236654278391    6.72690237065142
C         4.97325899976919    6.26851500283198    5.02794180276326
H         5.34171996786225    6.60725014006067    4.04961006683383
H         5.41452615202257    6.93835509218015    5.78110838465005
C         5.54967416438399    4.87415980061237    5.27663906037024
C         5.04554073572451    3.89766003923130    4.21178788910743
H         5.51072708796980    2.92231938501188    4.33913175334992
H         5.28289734156146    4.26353044301969    3.21446661211912
H         3.96543298821971    3.78210817829151    4.29320858463992
C         7.08285923265367    4.93958820579786    5.20334264093574
H         7.51299197422036    3.95658536239064    5.38257170432591
H         7.47680010649216    5.62490231651036    5.95110715849080
H         7.40538573559931    5.27954770677103    4.22168966133910
C         5.14376766039690    4.37241691851899    6.66588980969740
H         5.59469682350747    3.40189988655920    6.86477521342373
H         4.05954783608305    4.26638034435383    6.73589358065397
H         5.47704726853440    5.06503546239503    7.43807382709190
Cl        2.88582919281378    6.92901350193826    7.21830133209725
F         3.26381929249188    2.49721129395268   -0.92469231210839
F         1.11481751358257    2.50858047153211   -0.90554537274996
F         2.20161651171278    1.90950143467273    0.84886566718649
F         1.28009769434914    8.74618936174598   -0.67436590097494
F         2.98489683401474    8.03488590490207   -1.76995893352584
F         1.02305545917168    7.29089121869720   -2.23563872946317
N         2.67335391809039    6.16941892817086    3.34744799864468
Mo        2.79043805835501    6.52679226773826    5.05571053119728

