51
CSD_code = KALTID | q = 0 | S = 0 | Stoichiometry = C27H21AuClP | MND = 2
Au        5.20295362548904    0.68489343483724   12.38565412591099
Cl        5.88300398108155   -1.47883962300792   12.34020498329053
P         4.53264980569194    2.82138521557507   12.32999752614986
C         3.75571174528282    3.31597155533604   10.77033825040029
C         3.22598782496275    2.31845601055704    9.95942639426971
H         3.27654576722239    1.28788199386699   10.28735560589287
C         2.66511924503050    2.64574305004518    8.73923887018846
H         2.26587676839517    1.86859446020436    8.10506732702063
C         2.63035401799205    3.96819526055430    8.32780242095901
H         2.20015024318796    4.22355603637660    7.37087239494200
C         3.15193539822430    4.96502085363713    9.13751144145193
H         3.12387347183697    5.99510829859327    8.81331440869412
C         3.71694728525812    4.64459106583317   10.35787951020798
H         4.13679606470127    5.41738742028760   10.98855045454827
C         3.34139486593818    3.27715833156220   13.61827141331209
C         2.19372367383676    4.02422072801944   13.38115194870177
H         1.97383828383095    4.37850365167758   12.38372029582965
C         1.33302705994967    4.30511387454822   14.42829022424995
H         0.43991858207840    4.88425941054599   14.24529985338680
C         1.61059660161691    3.84466422614426   15.70476528699855
H         0.93401347694140    4.06674262867752   16.51638677154078
C         2.74990754314250    3.09028935880815   15.94154152401472
H         2.96119721664694    2.72348608118597   16.93488421264417
C         3.60950395477260    2.79950194156886   14.90013237279827
H         4.49553584553769    2.19731696924003   15.06292642405603
C         5.87564582036152    4.01473757275426   12.54322994368493
C         5.99576674280902    4.88757707197547   13.61541787350162
H         5.22048133988919    4.92871958776044   14.36804281360074
C         7.10758427267144    5.70759901460518   13.71255471408274
H         7.19686083275313    6.39042884576068   14.54421713225032
C         8.10479907270652    5.65272002757692   12.75002494274909
H         8.96997794107322    6.29313846101621   12.83651578731709
C         8.00233686643637    4.78121981990983   11.68121381317733
H         8.77882776226603    4.73067681831684   10.93229393051542
C         6.89115634650265    3.95088238042444   11.56947722089160
C         6.71573541965993    3.04440650436117   10.50436520850295
C         6.47714214418374    2.26113234868105    9.61281348144421
C         6.12215913916114    1.38478638748402    8.56693749712485
C         5.79558775796374    1.89809457816429    7.31093285147266
H         5.85034520194275    2.96423491022035    7.14192603887758
C         5.39820721877359    1.04652900341435    6.30037532658174
H         5.14645251430229    1.45262058403540    5.33035463866712
C         5.31764629241203   -0.32594466450087    6.51111485094065
C         5.64606513000110   -0.82824022772740    7.76627584702335
H         5.58773742576627   -1.89134264826416    7.94796962236733
C         6.04521812353621    0.00862561519936    8.78807033377911
H         6.29385593490672   -0.39639226637296    9.75747420560258
C         4.86595696131415   -1.24657225160077    5.41974022296422
H         3.80436564025638   -1.46902986930180    5.53521400874326
H         5.40873087768730   -2.18835419744303    5.46158708968690
H         5.01329487203303   -0.79555564114970    4.44117656297455

