84
CSD_code = KALVEA | q = 0 | S = 0 | Stoichiometry = C23H51ClN6O2Zr | MND = 7
Zr        2.59038596821384    1.63088621795708    2.59824868646005
Cl        2.97636305593449    2.45633558549783    4.88864975160343
O         1.46993957352174    3.35561887081543    2.36751053081120
O         3.08869352907664   -0.25399763946388    3.36684881434001
N         5.19566416416339   -0.84836335345424    4.09981721869740
N         2.01725007392391    0.85981299432026    0.80747608172807
N         3.58494426166159    3.47272385965863    1.93236644125435
N         2.35461288748740    5.40948700173336    2.76600708500505
N         0.54952467534179    1.12316945417257    3.63179040801133
N         4.68530905904673    1.10325913972670    2.80112688161171
C         5.98132721560117    1.64439650276135    2.49622546698328
H         6.68161263724546    0.84850507182167    2.19403305160532
H         6.41966461858259    2.17717973958382    3.35696440766691
C         2.52594492932829    4.10846379788649    2.36958802353232
C         4.81284822618694   -2.24808412343879    4.27022635999720
H         5.66672353073465   -2.73418309928860    4.75222867356044
C         7.23338502874135    3.20145786823249    0.99476382811857
H         7.89166896817580    2.38506995535917    0.70593929183604
H         7.67856625658432    3.71420578203643    1.84536032713241
H         7.17518737640817    3.90187148706448    0.16459136056087
C         1.59085753911102    1.67217208581394   -0.30672940482226
H         2.17067325133889    1.44905001084656   -1.22410457312561
H         1.72096354933548    2.72986738676897   -0.06453324064835
H         0.52483451234197    1.49654731624925   -0.55888364406800
C         3.46610196891973    6.28130567681462    3.12717182829815
H         4.34001391883821    5.90080049596873    2.60766317135951
C         4.96925597569351    3.86190180280351    1.81766199163057
H         5.38426421144723    4.20308327137793    2.78163461083069
H         5.08413572576467    4.66761077048480    1.07246851479438
C         5.84069582815217    2.66778660112694    1.34557770240190
C        -0.58141765072966    1.03502017869228    2.71457757100249
H        -0.53916987913029    0.07855279749803    2.18830275509487
H        -0.51159403467589    1.84560663827015    1.98658769619850
H        -1.54481075626177    1.10098158219745    3.24604156693290
C         6.28961886079202   -0.32967049939394    4.90945877601262
H         6.33284884698504    0.74083183218433    4.71270737328973
C         4.34914888931115    0.01283910201485    3.43446953742477
C         1.02480037544779    5.82754923273791    3.22609775850757
H         1.16012090324258    6.83467516643553    3.62289259427787
C         0.44760218344202    4.96144856024931    4.35509809035458
H        -0.17707766251145    4.17189538428690    3.94459510118738
H        -0.16171228706452    5.57765129090135    5.01419345793301
H         1.24768900553599    4.50666963616346    4.93605130832314
C         0.05875120568236    5.91452132674663    2.04311098659585
H         0.43428503322740    6.61040395139036    1.29626290055387
H        -0.91408818161837    6.25888761653911    2.38620601186412
H        -0.04824180631147    4.93460312698865    1.58603615967254
C         3.73915271739386    6.23180693609871    4.63337540426600
H         2.93293068580001    6.69996622366514    5.19249719647244
H         4.66613656594428    6.75251106013856    4.86233817933839
H         3.82292071957967    5.19545343435737    4.95682666621314
C         0.47823294897296    0.11144371713650    4.68037047536152
H        -0.47092956484492    0.16699167359688    5.23578785225367
H         1.30717127363527    0.26031781622519    5.37534719053504
H         0.56484360630673   -0.87983901000046    4.23048476076488
C         3.57736420095492   -2.47014355539361    5.14729411596107
H         3.69232871287192   -1.98336678838378    6.11108803595302
H         3.43459207517432   -3.53697830608656    5.30818290499205
H         2.70196916103653   -2.05923298271332    4.65575287238875
C         3.26578362577538    7.71724323602329    2.62945503798405
H         2.92541762037799    7.71245562375759    1.59704849330896
H         4.21620051100254    8.24342193772348    2.67784102773678
H         2.55054518368132    8.27112225737178    3.23158636841561
C         5.21173157268202    1.99152142286232    0.12539674643144
H         5.04627206861521    2.72208191757839   -0.66450278682703
H         4.25113841056043    1.54549189110200    0.41421069539050
H         5.87513925623607    1.21364968321495   -0.25064969320639
C         1.86196456108992   -0.53726091781893    0.49038871883988
H         0.82417563626916   -0.77763577606094    0.17979574306668
H         2.11055102921267   -1.14278141306385    1.36489583191280
H         2.51829950779581   -0.84706841371875   -0.34792394987833
C         7.63300732493963   -0.95439958684442    4.52066560225048
H         7.69030799923330   -1.99598907855491    4.82699498883562
H         8.44180686678804   -0.41385325423680    5.00560406639332
H         7.77667513800123   -0.90361533526903    3.44422802678915
C         4.61764282700081   -2.88600023910351    2.89391779648400
H         3.79618621988772   -2.39751236685620    2.37660502601128
H         4.39223911784391   -3.94466762029557    2.99864800088826
H         5.51935570277542   -2.77535774581336    2.29561124496436
C         6.02472172395316   -0.48126820102816    6.41056812342175
H         5.07731930331732   -0.01125497687657    6.66346456159355
H         6.81488850689677    0.01767845554249    6.96687455021780
H         6.00179285255422   -1.52563455740795    6.71129734639355
H         0.53735876842435    2.04389538398033    4.08535348562495

