36
CSD_code = KALVUO | q = 0 | S = 0 | Stoichiometry = C17H9MnN4O5 | MND = 6
Mn        0.12091593741174    3.90831478660834    1.85848617106017
C         1.03121687290667    4.56051019862827    0.44930087571422
C        -0.88761785534940    3.73692555572469    3.34339489101334
C        -1.39799710472789    3.88033966540303    0.89701773266154
C         0.44243106768110    2.15689411890234    1.55861562212114
C         1.59145603194491    4.10846784719248    2.88212251495428
C        -0.17242860860905    6.10651793261115    2.38136060256476
C        -1.47649995469673    6.77618249125879    1.92393281983501
C        -1.49990422867586    7.05782778444271    0.44913214703583
C        -2.09328674550552    8.10135774879810   -0.10537247678784
C        -2.84710468450718    9.17442898188115    0.62201840711837
C        -2.93446566552574    8.85853718278638    2.14133709692136
C        -1.65959629372992    8.12911698890272    2.67837308043474
C        -2.23500264750682   10.54863697021903    0.32850409571010
C        -4.07611291071168    7.98467791788962    2.36833833668520
C        -3.15845180583943   10.05807814700852    2.93241693166942
C        -0.48152589699670    8.96080057919780    2.52187511606011
C        -1.83642673424265    7.87685446050172    4.10026141833723
N        -4.97123799540461    7.29315206093165    2.51942828046612
N        -3.32749036122908   10.98699465013726    3.57284796329661
N         0.45629224840674    9.60223013926727    2.41161173542898
N        -1.99327961636799    7.66058868204150    5.20952597957731
O         1.59912297132072    5.02972873606080   -0.42006952824329
O        -1.54060981397237    3.71121762475886    4.27411387673792
O        -2.37289552096103    3.84768658206538    0.30709143381677
O         0.64784090687649    1.05254234361845    1.37555438206951
O         2.50810616101355    4.26751572207020    3.53551719645739
H         0.66345433069769    6.69777335029772    1.98432206680779
H        -0.11550248594422    6.20189426466600    3.47441239870672
H        -2.34285081720400    6.15277738324794    2.19416607669501
H        -0.98067714463164    6.34266139856920   -0.17385427654158
H        -2.05359454111815    8.23711501214465   -1.17626698328204
H        -3.87735832289723    9.18296242062948    0.23745359590763
H        -2.22251371832682   10.71023198656527   -0.74688332151268
H        -1.21396188602890   10.61431066973008    0.69597661543462
H        -2.82194316755786   11.34194761521412    0.78633712505405

