85
CSD_code = KALVAV | q = 0 | S = 0 | Stoichiometry = C34H48ClMoN | MND = 5
Mo        2.82068860826935    4.18455059975834    1.68922659633390
Cl        0.66314252835397    4.52660782115019    2.21737264613918
N         4.48772995208668    3.92104724323116    1.28264084796243
C         2.78122170755487    2.58154409007729    3.20577496602834
H         1.81049813766698    2.06901346134190    3.10393051264097
H         3.55112111015628    1.84732754070958    2.94753859205412
C         2.97715281145294    2.89590110795662    4.69208881312018
C         4.28377820821011    3.66763756785415    4.89038514003672
H         4.21196182961320    4.64136076840190    4.40471451783328
H         5.11930458237934    3.11580070686430    4.46233223056802
H         4.47941170047645    3.82141008226969    5.95066649668238
C         3.06436531838544    1.57442849131659    5.47208617653479
H         2.15905579648532    0.98602674624604    5.33605632121328
H         3.18841613357008    1.76716452397067    6.53611047238661
H         3.91367414159843    0.98634877437626    5.12941821380101
C         1.81345982887055    3.71896230947998    5.25125101695156
H         1.75229659899920    4.68974301221544    4.75897200760762
H         1.94688678138780    3.88730896703713    6.31897495034186
H         0.86757189854502    3.19964859078954    5.10466498770512
C         2.09749304728368    3.76515248824505   -0.35326203841673
H         1.29656813810241    4.49274519749613   -0.56432121348654
H         2.90888292460499    3.98045543345871   -1.05606976099579
C         1.56589295547013    2.37904638839458   -0.73106257687170
C         2.61623723526265    1.31520646417397   -0.40360308095062
H         2.28533612837100    0.33459483238390   -0.74276691180895
H         2.77439280374484    1.27579649654235    0.67461094774965
H         3.55981372134043    1.54939832776674   -0.89430559737934
C         1.28978722383739    2.34760746384986   -2.24267839610874
H         0.89779369476742    1.37622408992717   -2.53841541047061
H         2.20621126169070    2.53113763828607   -2.80039858933815
H         0.56011136790666    3.10694178722316   -2.51711754721506
C         0.26660405012263    2.05247828872193    0.01034568396551
H        -0.12175753066892    1.08754364047636   -0.31260605691090
H        -0.49205114284431    2.80793702298153   -0.18869151805434
H         0.43363263490098    2.00861436785915    1.08672265632189
C         3.14773295589987    6.27409022903278    2.32065025480509
H         2.52668432754599    6.43889237537285    3.21650246432018
H         4.19000925170313    6.37669242949786    2.63945568810644
C         2.88174859379231    7.43808380463789    1.36083275847925
C         3.66938876138666    7.23205836003798    0.06487783120935
H         3.29524239113033    6.34996773187203   -0.45571179171836
H         4.72798950362430    7.09670937115543    0.28146412427807
H         3.55931322751561    8.09515720652881   -0.59019732027262
C         3.35492589546215    8.74335779471804    2.02016790567886
H         2.83284384003107    8.91176823107522    2.96004225445987
H         3.16214226134739    9.59231601249604    1.36687138200224
H         4.42380179225874    8.70172438113055    2.22102676286816
C         1.39194945677663    7.56787271101126    1.03207715285708
H         1.02918560153676    6.67942906618048    0.51484884231777
H         1.21952777717702    8.42959997210785    0.38870886102852
H         0.80594972266782    7.69934787529800    1.94047456751892
C         5.85416252561729    3.70520791207427    0.95134028658598
C         6.61497696490218    5.01774369249233    1.15946796666754
C         7.38542591586986    5.61813155406759    0.17285353398432
H         7.50904132852821    5.14452818105280   -0.78893779706048
C         8.01383826809236    6.82988922935902    0.41194561057686
H         8.60546957230439    7.28408781657217   -0.36950554676896
C         7.89070092205678    7.45613770220834    1.63898668093599
H         8.37605463593330    8.40407973509901    1.81846464527158
C         7.15349061872738    6.84715710433434    2.64069512330397
H         7.06944621401464    7.31266871557323    3.61229282535227
C         6.52753928563215    5.63731755962150    2.40299970064270
H         5.98184900298178    5.14300854342463    3.19193211388309
C         6.40775020675962    2.61227859330730    1.86995289473632
C         7.53947574150602    2.77728295101196    2.65695037502584
H         8.10579261735197    3.69500660230623    2.61569197382096
C         7.96321118721994    1.76246967379429    3.50019275897717
H         8.84356776478211    1.91084262254012    4.10840778511105
C         7.27106442283752    0.56677902306789    3.56517405715014
H         7.60044698817151   -0.21847738103363    4.22944331854630
C         6.16206258236225    0.37990553237459    2.75710981839955
H         5.62659555900603   -0.55848369057826    2.77868677411248
C         5.73991704533225    1.39163899201737    1.91437793469413
H         4.89789680942106    1.23656880013857    1.25744554138091
C         5.93358401689582    3.26559795225410   -0.51327725306579
C         6.56831300400687    2.10249895502616   -0.92770381403569
H         7.07499425902002    1.47130181365551   -0.21388073686690
C         6.56799601888896    1.74004557469894   -2.26525574855583
H         7.06324471204601    0.82903967012796   -2.56827441240574
C         5.94345341080422    2.53485844185362   -3.20929239933239
H         5.93959851639014    2.24493163827464   -4.24963571689090
C         5.33844777511776    3.71479908947273   -2.80988614080887
H         4.86865610334075    4.35817044664796   -3.54004047285456
C         5.33955389546621    4.07739745892773   -1.47553130066881
H         4.90006056080276    5.01300960924484   -1.16556821375854

