43
CSD_code = KAMCIM | q = 0 | S = 0 | Stoichiometry = C14H14CdCl2N10S2 | MND = 6
Cd        3.99878130601972   -0.00014324555892   -0.00013743677256
Cl        2.93532733982133    0.84225888424016   -2.07373088186963
N         2.20129437608730    1.00548659522656    1.44322710206948
N         2.50112397132529   -1.42988489890819    3.15076090847354
H         3.49602399319173   -1.03916175468159    2.96796773694173
N         0.53608088797216   -2.11615795940109    2.47979310027964
H        -0.15020377952406   -2.28978364586852    1.72847480523874
N         0.10125885161433    0.45076828496035    1.04176307552038
H        -0.72666877330495   -0.11728422474477    0.94013980383907
N         5.38501545992062    1.70974223385943    0.16084416997266
S         8.02584824127153    2.48829456481944    0.44939579191450
C         2.28216652828691   -2.65993807191732    3.69143519652263
H         3.00717823529424   -3.12556384046894    4.32539722856877
C         1.06393087162364   -3.09608384166479    3.27454752487603
H         0.53351888292731   -4.00269870766970    3.47772335814142
C         1.44592696743126   -1.12159422954076    2.39295659249869
C         1.26744538781347    0.08824927314747    1.64604185247968
C         0.32088922967354    1.64361475561311    0.43018171739075
H        -0.43501290064932    2.14480013049834   -0.13805659364425
C         1.62380871719102    1.97512888343355    0.69736680272509
H         2.17810246761058    2.84384867862069    0.39739795340506
C         6.48695429868215    2.04555957497146    0.35860393046149
Cl        5.06212426323703   -0.84268837798634    2.07341489713309
N         5.79645952255740   -1.00537953727067   -1.44328538235831
N         5.49629932374440    1.43035512650697   -3.15034944234183
H         4.50139951950800    1.03940733819393   -2.96772414909503
N         7.46132931479948    2.11657769770511   -2.47926954686847
H         8.14765016782565    2.28994286454889   -1.72792749184584
N         7.89671109077959   -0.45109826401729   -1.04271072375609
H         8.72484313120034    0.11664439561167   -0.94154168508218
N         2.61242415902352   -1.70997735177642   -0.16091592988596
S        -0.02828745811835   -2.48924485138318   -0.44885812548791
C         5.71501199840023    2.66072126564166   -3.69041696636050
H         4.98983872337214    3.12653029005406   -4.32406242380793
C         6.93322115794647    3.09684845261416   -3.27343599162927
H         7.46348962916466    4.00364741494832   -3.47617078233410
C         6.55161226328065    1.12185139440916   -2.39279720115213
C         6.73031926431304   -0.08824611415002   -1.64634042059517
C         7.67722669435185   -1.64410120835269   -0.43136432696656
H         8.43334511164670   -2.14559910654414    0.13626968858519
C         6.37415988627340   -1.97537442440684   -0.69806592356769
H         5.81992963066730   -2.84419438989653   -0.39821398215587
C         1.51050204570298   -2.04608005344659   -0.35832782941820

