65
CSD_code = KAMCIL | q = 1 | S = 0 | Stoichiometry = C31H31NPPd(1+) | MND = 5
Pd       -3.66972506289487    3.17710859528194   29.19746237674999
N        -2.71391486127503    3.14947472779969   27.32059861337270
P        -3.25943711185835    0.94770262910134   29.03984589379023
C        -2.20611936986565    2.10248409208226   26.79213504775226
C        -2.05648978113109    0.86887706378647   27.63461023867664
C        -4.59509280888367    5.13515289627138   29.29587233047971
C        -4.27749375788040    4.68121430246042   30.57277286354700
C        -4.75020879261840    3.41131750284849   30.97549249397617
C        -2.76655322843184    4.41736117837617   26.70439328797460
C        -1.95559471238486    5.41626975814911   27.26999131907257
C        -1.99390808705267    6.68749820574925   26.72173555264916
C        -2.82285880254154    6.96695833470891   25.64765772689147
C        -3.63479222523224    5.98021841164063   25.12055809527284
C        -3.62314005584774    4.69039740121887   25.63537455559491
C        -4.52795503247315    3.63351537639308   25.07772491249704
C        -1.06205633284138    5.08685776733683   28.43310240434273
C        -1.68349356397149    2.04832287302724   25.41691441704573
C        -0.80305084618554    3.01789083158251   24.93936371642456
C        -0.33670212325183    2.95294995623289   23.63967941269663
C        -0.75388214416562    1.93481566217046   22.79803929532330
C        -1.63442421627604    0.97150609414324   23.26353477003770
C        -2.09095196974240    1.01906129994213   24.56720749078036
C        -4.75580720746777    0.28483596241585   28.24043403434774
C        -5.78174146277936    1.16974323889389   27.91406167705637
C        -6.91256547567658    0.70981005065228   27.26303838259985
C        -7.02585553255559   -0.63432143517958   26.94395830487175
C        -6.01144693213838   -1.51915018836559   27.27586904448621
C        -4.87629808220266   -1.06446582817406   27.92227405405795
C        -2.78917382230465   -0.35563294629391   30.20410670735116
C        -1.66101008441028   -1.15837592653725   30.08575336644988
C        -1.41335833858046   -2.13111823027814   31.03991726639559
C        -2.27943500016567   -2.30343973049884   32.10676118754086
C        -3.40338415888131   -1.49975220695384   32.22913457793764
C        -3.65517994967112   -0.52514099726721   31.28422735522321
H        -1.03963986803007    0.89151464638667   28.04708001613014
H        -2.16333687872870   -0.04912716732379   27.05090249904998
H        -4.16343875356107    6.06033702171859   28.93134392741105
H        -5.55936372577335    4.87045810681851   28.85262694402055
H        -3.50494743516055    5.18292018572243   31.15518199806483
H        -4.41112797665972    3.01887640076550   31.93084728468684
H        -5.76881159687923    3.12016315183289   30.70178171023431
H        -1.37094122185729    7.46370261078534   27.13971839686926
H        -2.84248870171857    7.96076532766508   25.22925689804437
H        -4.29218890210405    6.20704911984909   24.29537186075662
H        -5.42910314209966    4.08681438112912   24.67287077162199
H        -4.81040088126523    2.90969124155812   25.84366591394218
H        -4.03143896145909    3.09474356257119   24.26993887429579
H        -0.68103744673130    5.99758652539433   28.88783427103819
H        -1.59824574477218    4.49907946419730   29.20793021419433
H        -0.20910061108958    4.48913755932384   28.10599076203289
H        -0.46351442147904    3.80771195332591   25.59061239836997
H         0.35267172641755    3.70235972230813   23.28357578841900
H        -0.39429514010843    1.89152311470533   21.78200591444522
H        -1.96594358267501    0.17918245645864   22.61033429735729
H        -2.79900132481383    0.28012977682079   24.91441589872701
H        -5.68869274195698    2.23180561059167   28.18073361982481
H        -7.70742746900750    1.39432067988396   27.00809531155471
H        -7.90975650737033   -0.99391810057517   26.44061688603797
H        -6.10724679806338   -2.56604998621745   27.03190710260234
H        -4.08699914197899   -1.75298697160000   28.19153600203094
H        -0.97709313717823   -1.03691023248783   29.25881009154568
H        -0.53867318234293   -2.75681093619615   30.94809927272949
H        -2.07750041267243   -3.06301742357085   32.84581559131602
H        -4.07696653689752   -1.63330529910921   33.06158009251533
H        -4.52594854833977    0.11530677454256   31.36581661688447

