83
CSD_code = KAMCIN | q = 1 | S = 0 | Stoichiometry = C34H38AgN10(1+) | MND = 4
Ag        1.50840003199024   11.24283250927452   16.25319498049643
N         2.29488334142597    9.18352257214272   15.53472432198148
N         0.54399262982999   10.72983183484591   14.15464176502925
N         0.43015371761522   11.77489109486959   18.29043199791030
N         2.29042476311363   13.28706716344386   17.01883177648302
C         1.75515729074811    8.71394969856544   14.41880825331463
C         3.14540645484281    8.41095500770119   16.23817703493039
C         1.69154613353789   13.76825907848926   18.09906817775428
C         0.86006915341465    9.58666435943185   13.68206601465847
H         0.49311136610320    9.20947082287885   12.72870334129417
C         3.52854513946498   15.35830128946952   16.80056521410623
C        -0.28895378618888   11.66196891854312   13.48920865898824
C        -0.46063862486130   10.86056270852292   18.90362705040895
C         3.47836926760104    7.08956628315956   15.82634200025742
C         3.19753832184475   14.04253874821340   16.36952335257499
C         0.73678408240056   12.91354846452848   18.77983421402067
H         0.31815792531467   13.29980067591310   19.70794247993052
C         2.03656111566569    7.41575195766834   13.93673191723999
H         1.57286348606699    7.07969903782122   13.02237297999764
C         3.72545117379873    8.93387978197191   17.41163242236749
H         3.46333280206449    9.95201950537115   17.69304923349910
C         2.87416846994237   15.85206503083685   17.94955639066573
H         3.10296176654474   16.84591138123229   18.30439330013808
C         1.96620440134385   15.06195557630943   18.59689134269345
H         1.45285607254670   15.40796665695599   19.48048912058409
C         3.84040575827534   13.50686622540811   15.23520214049057
H         3.57764801904181   12.49328222276828   14.93844541013747
C         2.88812989783114    6.60881571300055   14.63776375772810
H         3.12061647385566    5.61128963046305   14.29588683455431
C         4.37285682273983    6.33610647804360   16.61074738804350
H         4.62240231656978    5.33419197830405   16.29560741459544
C         4.59037784860747    8.17643833835379   18.15032947763339
H         5.03536005971174    8.57782730768797   19.04786535793333
C         4.91435979610159    6.86892897565161   17.74880143274661
H         5.59978855134817    6.28867748987673   18.34664715841395
C         4.76432028967032   14.24667603418479   14.55212460045582
H         5.25764012079684   13.83533059553776   13.68487100858572
C         4.48433120676380   16.09370475957238   16.07341928001844
H         4.73198539129933   17.09146842815444   16.40290518104880
N        -1.75572716084894   12.35502878883140   11.65100236610383
C         5.08659537749071   15.54875095075117   14.97224686900372
H         5.81908283397726   16.11505103977240   14.41844657087400
C        -1.35405183694325   14.30928168632034   13.61935967628101
H        -1.96441961812131   15.11535408558818   13.20742973802395
H        -0.90200482960747   14.64356371741711   14.55765538596571
N        -2.20668863849783   13.15932251300388   13.88249881349997
N        -0.29834958693530   13.98516441488620   12.67063250888044
C        -2.78309411097064   12.70570859646420   12.61891956344061
H        -3.39808398533072   13.50741125641710   12.20562455747256
H        -3.41420231191022   11.83420758963438   12.80794362802184
N        -2.38195097271247    9.40369944839863   18.39324533933944
N        -2.05135402198982   10.20024726913512   20.64847096992013
C        -0.91236609784603   13.51895406219029   11.43007174056248
H        -0.12525348289441   13.26538696020585   10.71603084673040
H        -1.52236104150316   14.32399388067918   11.01596803768041
N        -0.56915462742646    8.53880826046238   19.71912606060676
C        -1.54346249868272   10.45385920387231   17.86635768472857
H        -1.04907087128191   10.10724484255947   16.94745721076639
H        -2.16797284029452   11.31897651606491   17.62725750444222
C        -1.57152199683531    8.23617830691205   18.70757151866473
H        -1.07020900588912    7.89151969247672   17.79852176712138
H        -2.22288404222088    7.44361827798809   19.08115408850800
C         0.32730422378968    9.55715107334991   19.23197564589523
H         1.08027549545836    9.76631573174887   19.99654302759040
H         0.83287620415948    9.20013848075926   18.32516016430341
C        -1.19458337631965   11.28521257100377   20.19425071424114
H        -1.81942978165793   12.16537837185387   20.01411206040142
H        -0.48300123814754   11.51220625080782   20.99394938114563
C        -3.02479770326003    9.87061270788174   19.61937140382172
H        -3.68088740087072    9.08258101971789   19.99392343331085
H        -3.62441562375267   10.75520054026936   19.39239745042821
C        -0.95141936028416   11.25236474656649   12.15574399397058
H        -1.60445140627269   10.38560685316280   12.29665314808511
H        -0.19733732067959   11.01013253511014   11.40072192646899
C        -1.42430461543477   12.09175931213518   14.45863587253058
H        -0.97989843470875   12.42814935025345   15.40641587126863
H        -2.08048691598388   11.24018523192155   14.65828316601915
C         0.54492872454447   12.94837359800882   13.21071062895304
H         1.33865310755477   12.72290425467075   12.49345902338725
H         1.00157190069807   13.29490415232218   14.14710688936684
C        -1.24788395379964    9.01891901127521   20.92001355729062
H        -0.50077121891212    9.25636380359786   21.68102057650920
H        -1.89900498765729    8.22732470841657   21.29563583469409

