77
CSD_code = KAMCOR | q = 1 | S = 0 | Stoichiometry = C36H38NPRh(1+) | MND = 6
Rh       10.58254977798464   13.06500734056268   14.79734616790473
P         8.40432679033991   12.44031551645143   14.73478199340001
N        10.18647311731842   13.39843163585043   12.79502878951233
C         8.98285073031280   13.54242605453093   12.36071647996047
C         7.87642271872124   13.58490640966487   13.36105201400153
C        12.74582548079700   13.63306696306668   14.78044343222965
C        13.50742733553599   12.95966256369502   15.89778347270879
C        12.69574744311891   11.83678274696835   16.57077326096085
C        11.21210356352839   12.10481312519504   16.61525823607230
C        10.62145491571248   13.30578597425602   16.96902959028121
C        11.38197812869608   14.53691114922096   17.40480323189249
C        11.69404474593646   15.47859575121178   16.22772777147021
C        11.97511436751728   14.76425106158569   14.92901700229541
C        11.28560940406144   13.42456294796163   11.90417031279621
C        12.06578078679200   12.26394192653014   11.77711247678607
C        13.16114504122172   12.28098676795888   10.93024835396047
C        13.49257496452494   13.42694117910657   10.22760355604177
C        12.73092396185184   14.56913893687391   10.37579841840560
C        11.61866433912276   14.59165474754538   11.20861628334549
C        11.69915677687849   11.02865534740508   12.54216218635018
C        10.82910803712392   15.86026565591319   11.33769097232877
C         8.61114778900682   13.63078550607699   10.94279142902400
C         9.15643019306606   12.77187708704306    9.98906945394519
C         8.77378031223877   12.86882294306193    8.66468874393945
C         7.85425400701536   13.82694278505419    8.27042132727131
C         7.30026448968435   14.67924088696116    9.21229198509169
C         7.66479977409660   14.57625776765938   10.54092829481880
C         8.78305330843989    9.75582213182485   14.18763867561789
C         8.42865843801512    8.50335643088818   13.71829027730925
C         7.17288656142544    8.30264432903311   13.16981871431802
C         6.26848593142981    9.35170121046581   13.10044480356997
C         6.61814550252685   10.60428138198009   13.56897430955470
C         7.88505013817763   10.81473118347970   14.10782771220081
C         7.19430713750661   12.82814342493599   16.03419186067651
C         7.17104970012839   14.13592035132188   16.51764570522320
C         6.30041541244050   14.48849696689611   17.52993902777561
C         5.45787305282617   13.53359117553734   18.07950888480576
C         5.49763744387489   12.22706631261029   17.62212832316778
C         6.36764822438883   11.86832138723589   16.60668982496416
H         7.80101047169428   14.58666669244928   13.79607117216779
H         6.91405442129959   13.32148961856208   12.91885209011443
H        13.13001903935338   13.42358798637039   13.78494436666393
H        13.80896537247319   13.70770173338869   16.63024716770806
H        14.42012294742871   12.52652991797495   15.48618047945896
H        13.05430767342243   11.67712702850176   17.59243329445754
H        12.86114464364582   10.90250153073196   16.02767978712332
H        10.60914914801329   11.20127167783884   16.73649297335589
H         9.59406953296775   13.26535137147263   17.32744130953925
H        10.78015088023161   15.08167958732413   18.13365802391429
H        12.29866313297092   14.23307255156531   17.90890630301087
H        12.55441809235709   16.10947237534120   16.47238753315053
H        10.84347428329548   16.14811770244686   16.07293612473710
H        11.81777027219992   15.38484232163607   14.04711003631368
H        13.75910699620187   11.38893136927524   10.82159261364128
H        14.34829717805897   13.42909864148195    9.57135223014288
H        12.99468775603600   15.46649816646760    9.83747132424245
H        12.48758917466467   10.28462154139204   12.46984604270965
H        11.53781903057116   11.27693690768415   13.60669771092539
H        10.77490377378134   10.59149908425582   12.16000198201181
H        11.49843671578011   16.71766724094416   11.31767025016602
H        10.24754947501192   15.89161148391643   12.25719061652967
H        10.13923064356795   15.95847905904343   10.49880779564329
H         9.85818707427481   12.00917630318206   10.28622860869372
H         9.19763258624730   12.19339681455397    7.93796581097672
H         7.56591737708038   13.90630542263407    7.23397286407033
H         6.57989106748642   15.42431670818886    8.91161491910126
H         7.23905418035126   15.25341758197941   11.26670869785808
H         9.75856082254996    9.92131084040811   14.62697561801056
H         9.12916420008959    7.68467954416803   13.78259713285289
H         6.89376711388584    7.32729339156657   12.80246621968291
H         5.28581368413791    9.19064994837506   12.68385112368158
H         5.90039672640892   11.41208250113222   13.53188346121675
H         7.84923256768372   14.87168939393551   16.10109190852084
H         6.27954329001495   15.50377035446142   17.89614344835644
H         4.77749523174376   13.80773089362922   18.87065946130418
H         4.85133564866142   11.48149685997581   18.05929323750772
H         6.40209793101508   10.84602078833484   16.25882290445932

