100
CSD_code = KAMDOS | q = 0 | S = 0 | Stoichiometry = C53H42N2P2Pt | MND = 4
Pt       -0.13501378791396   -0.00027887149420   -0.00297298835290
P         0.84841184790727    1.68821218549811   -1.28461365893701
C        -0.95147880236628    1.36702885308751    1.23606191066693
C        -2.25305384494025    1.87023515281735    1.21259559391319
H        -2.98610060548273    1.45761965518763    0.52864126904510
C        -2.64361869127160    2.89696215819158    2.04960705879728
H        -3.65349445247597    3.28258466083581    2.01013623288163
C        -1.73637706095903    3.45276760940079    2.95311005575608
C        -0.43814088790343    2.94133595521073    3.01206995938513
H         0.26691323347067    3.36146669086032    3.71642892578655
C        -0.06394079884290    1.92050156138162    2.16464059095824
H         0.95683558565758    1.54804504580661    2.21892535714865
C        -2.12417185209740    4.51615715980188    3.79066063415246
C        -2.45626480002053    5.43297819495372    4.50537119686627
C        -2.84908206522355    6.49406607552157    5.34313080896489
C        -4.15384539096442    6.99711350590582    5.30711850844632
H        -4.88255095831170    6.57461159136457    4.63189391888117
C        -4.48134262600601    8.03916709372522    6.15392299907932
H        -5.48043579659193    8.45693228903602    6.15824580273738
N        -3.62961753452273    8.59486474132769    7.00204417116214
C        -2.39464858788957    8.11795623163648    7.03570426445629
H        -1.73075424535354    8.59857308820404    7.74354011927456
C        -1.94888520951564    7.08023813972993    6.23909062297471
H        -0.93186217955412    6.72349813596188    6.30199648742019
C         2.29795654412020    1.27602513197179   -2.36294056401006
H         2.48677684130849    2.12110081508238   -3.03122269266920
H         3.17874676105558    1.14523895765647   -1.72859699852447
C         2.06186424539898    0.00001632013257   -3.17507846168086
H         1.04032747754457   -0.00001094285212   -3.57420275760487
H         2.74412117198957    0.00004207855737   -4.03051504730267
C        -0.33738675396329    2.33436558460445   -2.50463129725075
C        -0.01609547918830    3.32281148481724   -3.42850608752358
H         0.97505768596263    3.75525619054593   -3.44050609393720
C        -0.97383016644485    3.76906106034185   -4.31989261776091
H        -0.72365420306716    4.53755101929853   -5.03681007169151
C        -2.25475923031983    3.23882909763871   -4.29355778417539
H        -2.99685345700140    3.59176236681547   -4.99432229644903
C        -2.58523234606485    2.26852958413181   -3.36247339462557
H        -3.58709237725220    1.86635535594748   -3.33108336474062
C        -1.62841516729032    1.82273803557642   -2.46950627656216
H        -1.86646998818184    1.08306377519991   -1.71015448226569
C         1.35939479946006    3.22690179067423   -0.46021737206096
C         2.65966168383138    3.45715604894275   -0.02552869503571
H         3.44672000264544    2.75263275148799   -0.25376405803326
C         2.95608273927363    4.58953082137375    0.71241411089265
H         3.97052037164305    4.76345906134056    1.04138984110238
C         1.95738715210745    5.49041852911483    1.03996947043062
H         2.19111583359549    6.36761345877800    1.62461616693470
C         0.65560313502074    5.25822889307464    0.62581930502625
H        -0.12998366769216    5.94937285307896    0.89276601891898
C         0.35746073512685    4.13281480941060   -0.11638632124541
H        -0.66080460373006    3.94190374454653   -0.42696924847567
P         0.84855288457010   -1.68816316673702   -1.28477074922837
C        -0.95175500855425   -1.36669589545163    1.23660547058208
C        -2.25321334105907   -1.87012986673629    1.21281125979591
H        -2.98619323425767   -1.45755042609643    0.52877061711605
C        -2.64368810718333   -2.89708397530854    2.04954898319885
H        -3.65360527143267   -3.28258970585507    2.01014878435915
C        -1.73642815676491   -3.45297477908724    2.95297170874987
C        -0.43819457579589   -2.94153220336104    3.01202667125169
H         0.26679374650213   -3.36154800638215    3.71651761947192
C        -0.06406090637480   -1.92048707926920    2.16482889300529
H         0.95672099681328   -1.54803251351694    2.21909428377255
C        -2.12455780927248   -4.51589610690765    3.79094320773317
C        -2.45618308493139   -5.43298518275849    4.50551193555526
C        -2.84896234681997   -6.49429784758865    5.34298972705171
C        -4.15382090249851   -6.99711358392394    5.30717125282129
H        -4.88250430800343   -6.57462413783621    4.63191303340471
C        -4.48137896210539   -8.03908081503375    6.15405544351555
H        -5.48041088013095   -8.45700624266363    6.15818951930042
N        -3.62963473402556   -8.59487723259634    7.00209528202313
C        -2.39463087371766   -8.11805717045766    7.03569260307175
H        -1.73080039352164   -8.59855507848297    7.74366585105600
C        -1.94881982837525   -7.08040669955710    6.23902880920854
H        -0.93185462132356   -6.72352286490144    6.30211074560240
C         2.29810909932801   -1.27602552307313   -2.36305792854355
H         2.48691951814926   -2.12109823956212   -3.03134433103030
H         3.17886796683141   -1.14522333849959   -1.72867155789849
C        -0.33737002717933   -2.33436280693250   -2.50464025719001
C        -0.01609439446773   -3.32282986623102   -3.42849356004463
H         0.97506659649441   -3.75525648456690   -3.44051628354607
C        -0.97381795229146   -3.76906370782885   -4.31989577331637
H        -0.72363139404196   -4.53754320847033   -5.03682157304435
C        -2.25474235148053   -3.23882385437029   -4.29357378472901
H        -2.99683729579762   -3.59177021433919   -4.99433069913870
C        -2.58521126987003   -2.26851439409334   -3.36249724298013
H        -3.58707683871502   -1.86635328897998   -3.33110288326547
C        -1.62839537765176   -1.82272222380905   -2.46952390131353
H        -1.86646346038168   -1.08305968432039   -1.71017147167325
C         1.35939364883034   -3.22680446830257   -0.46017875904122
C         2.65966166874635   -3.45710366564107   -0.02551371470778
H         3.44673094452252   -2.75259771704483   -0.25375556257455
C         2.95607866077963   -4.58951054212597    0.71238269066483
H         3.97051233605458   -4.76344645623106    1.04136607831398
C         1.95737846098179   -5.49039616087195    1.03992717367660
H         2.19109764865547   -6.36758609658289    1.62458815489060
C         0.65559674395894   -5.25818904395695    0.62578145139213
H        -0.12999051022086   -5.94933520567126    0.89272600332370
C         0.35745463729092   -4.13273912202956   -0.11638030212930
H        -0.66080756899044   -3.94183968722368   -0.42698168961885

