54
CSD_code = KAMFOU | q = 0 | S = 0 | Stoichiometry = C20H26Cl2N2NiO3 | MND = 6
Ni       -1.01622822741765    6.09780460198840    9.06220994955383
Cl       -1.58614526457805    8.15523757547164    9.06752793300372
Cl       -2.84387496250645    5.50870943178376    9.76041479716423
N         0.68790609640960    6.71082492988164    8.47025447984246
N         0.35550879002371    5.75612370784620   10.89045606888421
O        -1.19680382569428    6.04778653292473    6.64631043222588
O        -0.27901479363223    7.44790787745952    5.15911886086164
C         1.67106026657058    6.92204228015857    9.35496863900496
C         2.83965381941105    7.58540838253533    8.98131524818951
H         3.61978246930743    7.75904944667406    9.70419256686701
C         2.99044130885100    8.02489543070894    7.67724740663492
H         3.88656357090224    8.54498311857818    7.37529061227307
C         1.97177139469540    7.78952140009505    6.76775890042935
H         2.03639748474338    8.10941121968857    5.74097315770521
C         0.83637646111440    7.12596234609613    7.21167416904328
C         1.43311769589897    6.41134038276884   10.71435449601800
C         2.45147584172811    6.67119655853044   11.78333915179160
H         2.59506227372029    7.74246626630948   11.91469055675963
H         3.40786688676020    6.22438504064977   11.51528727807396
H         2.11361804767178    6.24149789667543   12.72383528096829
C        -0.00348336372413    5.15233304730500   12.10057457356958
C         0.37911745261689    3.82310354188606   12.31892561990355
C        -0.04364200796267    3.20056529658080   13.48268069428081
H         0.23841298814090    2.17884096678506   13.67962445234028
C        -0.83051900220897    3.87533532612851   14.39779473109253
H        -1.15377544971501    3.37547380439962   15.29894058543116
C        -1.21182534769939    5.18369755348838   14.16210821367828
H        -1.83337515887188    5.69009178444534   14.88221655032838
C        -0.80746360659505    5.84576604413276   13.01389686376757
C         1.23683597036563    3.14289247942083   11.28182502284321
H         0.87100207783347    3.43765692514488   10.29451597795563
H         2.26219105952231    3.52171580336204   11.36729252110434
C         1.26353510447111    1.62155696031632   11.36747211243551
H         1.76758931989108    1.28319480607562   12.26995403762129
H         1.79965434046379    1.21635531207337   10.51176641190206
H         0.25260112401253    1.22123444738351   11.35920567372654
C        -1.19190470686471    7.26382469387652   12.69332034397369
H        -0.29829899868024    7.89654466976249   12.74427593948888
H        -1.53358410038086    7.28852897143531   11.65262441399456
C        -2.27820704651994    7.85946991668590   13.57730766647838
H        -3.17046984979848    7.23886500821968   13.55142785874899
H        -2.54088073714184    8.84734700349813   13.20646293201104
H        -1.94324260786386    7.96107787729864   14.60821738053687
C        -0.31894947831424    6.82074325725550    6.32108201223475
C        -1.40315937999823    7.23925160643215    4.29354965731772
H        -1.49290976531455    6.16710790770630    4.08613129430697
H        -2.30771762531981    7.56347839324076    4.81872789782201
C        -1.17991381666091    8.03538752703904    3.02305846931360
H        -1.07557780004688    9.09124734891512    3.25736849013159
H        -2.02835288107563    7.90206981504834    2.35870342434694
H        -0.27800091095684    7.69801300437981    2.51864250568536
O        -0.67753835229679    3.93523954453299    8.58657672349257
H        -1.08904709377092    3.91257857710770    7.71348551097546
H        -1.36863568350920    3.65665635180881    9.20972345186383

