40
CSD_code = KAMFIO | q = 0 | S = 0 | Stoichiometry = C16H14Br2Cl2N2NiO3 | MND = 5
Ni       -1.53094907669046    4.98649084115083    9.82278457826196
Br       -2.48009064387184    5.38286545648507   11.72217475441972
Br       -1.73982035308959    7.17294263972503    9.09434588505576
Cl        0.81744910551795    3.79867911256023   12.05229912415878
Cl        1.88458245843087    8.11244760232110    9.01218277626436
O        -1.25318665859531    3.44688735080660    9.73705778317804
O        -3.46525162300875    4.51051580043704    8.39989348417041
O        -4.08223433665132    3.89511056838493    6.33152611366197
N        -0.89172982908176    4.60311156954705    7.69285585563894
N         0.79300584751999    5.36686585185814    9.60056342574575
C         0.41203334698508    4.61242634953667    7.40938976277851
C         0.86981742369521    4.23174043237414    6.14648612209256
H         1.92187881592983    4.24871052831332    5.91603491343214
C        -0.04435387293380    3.83315326092051    5.18582253230044
H         0.29147725989105    3.53395836186644    4.20453094826233
C        -1.39194539132316    3.82229124852716    5.50196926600523
H        -2.15276099722971    3.52166538965091    4.79959302226773
C        -1.77287024881648    4.21710381145148    6.78111697869988
C         1.32009959905598    5.08375703278815    8.47433259624294
C         2.78287470285492    5.16953936930878    8.18642378439904
H         3.32699152183975    5.45291905944985    9.08421629973681
H         2.97721658502501    5.91006832747057    7.41247593298399
H         3.14734046892045    4.20182828312855    7.84490995215615
C         1.42745375015079    6.00323148411287   10.65434010438634
C         1.42905137431996    5.40542376269877   11.92255405409721
C         1.91547605784353    6.07500042594118   13.03036277916117
H         1.90316672727063    5.58655769633516   13.99063191452397
C         2.39457347251955    7.36657757382776   12.89102257503673
H         2.76027103813410    7.89880162737685   13.75439264728301
C         2.39764377938982    7.98485249545807   11.65287599473921
H         2.75984976258085    8.99394334544653   11.54070978428123
C         1.92689807499723    7.30895174754547   10.54009446495487
C        -3.23438428468227    4.19296662825401    7.13286883275735
C        -4.83602307582228    4.51907337611364    8.84418851455020
H        -5.39071401266377    3.78501030389406    8.25212557824440
H        -4.80430647973708    4.21266060588953    9.89265684297233
C        -5.43586384201556    5.90752706313844    8.69591111605751
H        -6.44895730801406    5.90363181220417    9.08675210521386
H        -5.46108276315611    6.19943267129792    7.64848926865453
H        -4.85032637549504    6.63777913239723    9.24973753117474

