40
CSD_code = KAMGAH | q = 0 | S = 0 | Stoichiometry = C16H14Br2F2N2NiO3 | MND = 6
Ni        7.59644913418571    2.99707745904457    7.57920683369847
Br        6.83172013557242    1.00198316084622    7.85857267177680
Br        9.12267170092394    2.84310634847905    9.31361626790034
F         7.99528493802117    1.43165919804432    4.85337644283689
F        12.25743064881201    2.44829156730311    6.57141578134554
O         6.31789934510875    4.40051588003650    9.02365401766483
O         6.07417956169374    6.48817723205316    9.77535566819191
O         6.83341272148558    3.66354288343979    6.39299137888782
N         8.41717687244033    5.15395953464110    7.50739404462870
N         9.58030063681569    3.19119047069500    6.19543226943697
C         7.82331676185811    6.07252983499412    8.25296589409555
C         8.26704925961919    7.38903452497443    8.30164556030891
H         7.75813471641351    8.10891995928284    8.92080086142272
C         9.37496910435653    7.72462386188659    7.53857253205457
H         9.76026734114480    8.73300791021967    7.55260575310715
C         9.98715086762800    6.75706894382523    6.75912086548109
H        10.85769749115956    7.00430438243981    6.17435418588263
C         9.47021307369002    5.45931195730933    6.75572209548629
C         6.66221569325362    5.56255466356969    9.04819175959013
C         4.96482159957761    6.05478031159301   10.57974209498592
H         5.33341571576105    5.33340794546275   11.31652513262048
H         4.24252496850631    5.54579206596518    9.93309185228520
C         4.35855985777352    7.27245325858776   11.24796452012231
H         3.52210680987317    6.96465841937777   11.86794679021285
H         4.00432495907976    7.97652358563617   10.49982783216429
H         5.09830454514979    7.76679006598814   11.87176309529133
C        10.06438642460114    4.35165937936276    5.98353625997826
C        11.16279462294868    4.65419764757807    5.01747961844805
H        11.33675386336614    3.80253200162778    4.36284369824535
H        12.08500289374381    4.86366416803908    5.55941105160726
H        10.90614262538078    5.51969742136620    4.41038573088799
C        10.09506982735788    1.99616693026547    5.73290759724839
C         9.24947639055567    1.05191874488427    5.13614263466637
C         9.67318221652396   -0.21820093219504    4.80672539577179
H         8.97538863814909   -0.90121918364814    4.35085079810892
C        10.97600186005980   -0.59207926095072    5.09402497498120
H        11.31232131253023   -1.58886369647548    4.85991707946570
C        11.84651601941727    0.30692650843729    5.68588783266946
H        12.86228841006860    0.03625093633728    5.92442291087429
C        11.40747643539438    1.58058390967581    5.98680821555807

