49
CSD_code = KAMHUB | q = 0 | S = 0 | Stoichiometry = C20H24N2NiO2 | MND = 4
Ni        0.00000094491511    0.00000367303373    0.00000795266630
O         1.55701321069657   -0.25895220085559   -0.92281347795294
C         2.65134263581953    0.40588678390559   -0.99925099563764
C         2.85104069546509    1.66576074525447   -0.36613772970839
C         4.08509982314399    2.32620747017382   -0.49450529216463
C         5.10916381795829    1.78118453659024   -1.22225003853773
C         4.92082224392284    0.54713336634573   -1.85441029136580
C         3.73173837878815   -0.12175805748185   -1.75198889686640
C         1.79580683104599    2.26628869041383    0.36897059051295
N         0.62122814283618    1.78181001021282    0.60164506898238
C        -0.29666271945712    2.66671268299078    1.29922738981191
C        -1.23950514243258    3.34029936847042    0.29576541467512
C        -2.26888561852075    4.21387178580705    0.99822921200794
H         4.21382900783315    3.28113944315895   -0.00341303787813
H         6.05382004905498    2.29482610184963   -1.31288087090665
H         5.72782066732341    0.11771375261238   -2.43099322995429
H         3.58515674567638   -1.07373892233456   -2.23996116172248
H         2.02668659238704    3.25971290388703    0.76537024222434
H         0.26283067903394    3.43407383214891    1.85028903302321
H        -0.88828593596635    2.08171953291915    2.00523130031095
H        -1.74284357002365    2.55806739219731   -0.27747526491837
H        -0.65029465116428    3.94373368789370   -0.39986006438214
H        -2.92571665197924    4.68494835253990    0.27117854146887
H        -2.87743601022475    3.61669420404696    1.67275255000997
H        -1.78077142135215    4.99558991818417    1.57724994609148
O        -1.55700444938171    0.25895405525916    0.92284198655124
N        -0.62123296981093   -1.78179542961112   -0.60164305608631
C        -2.65132960392675   -0.40589034418973    0.99929267698113
C        -1.79580728089531   -2.26627886599542   -0.36895585280103
C         0.29664514805641   -2.66668738180170   -1.29925624882245
C        -2.85103142480247   -1.66576148424125    0.36617501153480
C        -3.73171718852907    0.12174645546621    1.75204794539807
H        -2.02669175753010   -3.25969843019843   -0.76536443587677
C         1.23949756545877   -3.34030370780655   -0.29582367302635
H        -0.26285975097984   -3.43403259315101   -1.85032845761814
H         0.88826215031134   -2.08168124892568   -2.00525456860325
C        -4.08508600124901   -2.32621407513334    0.49455657856783
C        -4.92079666135325   -0.54715065946413    1.85448286525712
H        -3.58513244450679    1.07372516920402    2.24002354720208
C         2.26885786776866   -4.21387116960330   -0.99832340628388
H         1.74285300806022   -2.55808891925180    0.27742506621110
H         0.65029306679471   -3.94374738839783    0.39979878429264
C        -5.10914186817885   -1.78119939762342    1.22231889407120
H        -4.21381839737691   -3.28114396015430    0.00346108100852
H        -5.72778871632512   -0.11773748308187    2.43107953281812
H         2.92569922188537   -4.68496673578043   -0.27129444159258
H         2.87739986443535   -3.61668573013969   -1.67284745477227
H         1.78072650587130   -4.99557431018367   -1.57734995714039
H        -6.05379462857576   -2.29484541915970    1.31296069293986

