108
CSD_code = KAMKIV | q = 0 | S = 0 | Stoichiometry = C35H68AuClN2O | MND = 2
Au       11.33861440004192    7.47566647828279    8.26109684037970
Cl       11.36111396167558    8.53256662084563    6.28170097033269
O        14.51256624477782    7.56630600337815   10.27113015769500
H        13.59931679459099    7.87268665279295   10.21863669762268
N        12.17011953213965    5.66047879039170   10.53433583998666
N        10.24162955118874    6.53016358512294   10.89260599177749
C        11.26369509117123    6.51238024966532   10.01800471613570
C        11.71985197505461    5.15094578080440   11.72294710165678
H        12.28947603262518    4.45423354315765   12.30190085721283
C        10.50010680644743    5.69527639448567   11.94415317295485
H         9.81276882879317    5.55819338344803   12.75286645361152
C        13.47014765976754    5.38261292200075    9.98445612834734
H        13.45813220061827    5.63010156038742    8.92009058363678
H        13.68741243246521    4.31974996103620   10.11039430210447
C        14.55748479936221    6.22586919864171   10.68507683546644
H        14.38492842405998    6.16786029455089   11.77637141252219
C        15.95359487161868    5.68343020833165   10.37116098580564
H        15.98501410544159    4.61604517378397   10.59796869981184
H        16.13955902085939    5.81922659741823    9.30550075103666
C        17.02825989780181    6.41328410078976   11.17318995014685
H        16.96777615243159    7.47762980547639   10.94643763909104
H        16.82842488197504    6.28590805030191   12.24006424450787
C        18.42770028794983    5.89357299017065   10.85704596432721
H        18.46414468746298    4.81680255797820   11.04117243335853
H        18.64417880088432    6.05513651296106    9.79942097446843
C        19.49343417855962    6.58392816881350   11.70455593775382
H        19.46782453941133    7.65823104580770   11.51139020488206
H        19.26413184376624    6.43387996886768   12.76232476627633
C        20.89424873418480    6.04989015163036   11.41555871516359
H        20.90894715630425    4.96955063492493   11.57935946842543
H        21.14019868890019    6.22699193567337   10.36627674382307
C        21.95084730299484    6.70565562489918   12.30129760211537
H        21.69583494572596    6.53655356181295   13.35035015388624
H        21.94616450193505    7.78470482873430   12.13151257377794
C        23.34950324018783    6.15697708885833   12.03029270496397
H        23.34763419948975    5.07507995018804   12.18393725648465
H        23.61396930077558    6.34039691019268   10.98634652293306
C        24.40147675853353    6.79071461305130   12.93718923945317
H        24.41043857074198    7.87184501738119   12.78035469349469
H        24.13169463068904    6.61203796218076   13.98094121363526
C        25.79728893674129    6.23035667419093   12.67561599320281
H        25.78171225582111    5.14647008664040   12.81399875313188
H        26.07586846293076    6.42525618318449   11.63726333413967
C        26.84575886198423    6.84006453798940   13.60287462085388
H        26.86236782819324    7.92402571696063   13.46657816881777
H        26.56649434178262    6.64328484414187   14.64090250713708
C        28.24038975886657    6.27668587838305   13.34117560995178
H        28.21850142805517    5.19066501720057   13.46099643785022
H        28.52683225803911    6.48760923396062   12.30799150552866
C        29.28538003559920    6.86600808887832   14.28526665091128
H        28.99957300520717    6.65197554198460   15.31806649434583
H        29.30661263835303    7.95214553901690   14.16783427755632
C        30.68061731227001    6.30418441406879   14.02338047958514
H        30.65740691608536    5.21731950544591   14.13208783032120
H        30.97105821389325    6.52653544509365   12.99399092415768
C        31.71558838312202    6.88603281967573   14.97842099379030
H        32.70156828399251    6.47560527115334   14.77296932413206
H        31.76530241811716    7.96776706172797   14.87376334099176
H        31.45546392084197    6.65465942527485   16.00915742642365
C         9.01617782713167    7.26604760179914   10.71980284528559
H         9.22158058494747    8.10984098815887   10.05666139634675
H         8.69552230937987    7.64572667749040   11.69386314104674
C         7.91905770340577    6.39121600080823   10.10935425170550
H         7.73436169790096    5.53211929761669   10.75911932433925
H         8.26492922092579    6.01629816241101    9.14404099232506
C         6.62687309477091    7.18075390065556    9.92001568361618
H         6.81196948147093    8.01212392305964    9.23767795713250
H         6.31467000133773    7.60080768096133   10.87926687913106
C         5.50342462033223    6.30949192955811    9.36375745484816
H         5.81362699503009    5.88844685184666    8.40552195287950
H         5.31861804591985    5.47704245709524   10.04716077759693
C         4.21146131773824    7.10079192927493    9.17411769155352
H         4.38580497982885    7.91019967307442    8.46228496073284
H         3.92318120634237    7.55451557301425   10.12548213527832
C         3.06917307031915    6.22158890012360    8.67102059563351
H         3.35515353808678    5.76608806729755    7.72047621279810
H         2.89533502454992    5.41289284876390    9.38510516773081
C         1.77726068061577    7.01314557160661    8.48355353772604
H         1.50628172937618    7.48994936248355    9.42869694822596
H         1.94300004887080    7.80599954201297    7.75076852750640
C         0.62281266988201    6.12875029717488    8.01841183188806
H         0.45497379313728    5.33838057736295    8.75413286095345
H         0.89247446740578    5.64843537058764    7.07502865920134
C        -0.66672627432714    6.92385815186703    7.83006882885378
H        -0.92344326664783    7.42108085016496    8.76869551772010
H        -0.50444540229612    7.70133122357927    7.07989958052435
C        -1.83293970516053    6.03948232674535    7.39537604632953
H        -2.00050872218604    5.26661171882988    8.14952597866389
H        -1.57664296795561    5.53641735085565    6.45997732393124
C        -3.11692659051802    6.84251206332537    7.20203809102521
H        -3.36151193715884    7.35978076400549    8.13304622935261
H        -2.95337063664170    7.60427137878699    6.43604014974472
C        -4.29440177029433    5.96109947957260    6.79285906706995
H        -4.46324109267621    5.20423063290405    7.56283878671451
H        -4.04945567468082    5.43795774804239    5.86535234622544
C        -5.57308056427260    6.77130473857415    6.59323420987868
H        -5.80921227945966    7.30508857888398    7.51712990883600
H        -5.40752392419037    7.51980315075578    5.81451569908752
C        -6.75811615575460    5.89150880996090    6.20337471944328
H        -6.52264446584623    5.35679197993839    5.27994711716559
H        -6.92467365777313    5.14433949192467    6.98330595400823
C        -8.03608421920769    6.70277501363533    6.00327083348541
H        -8.26880949717301    7.24130794938341    6.92500757655088
H        -7.87182281169362    7.44608476033814    5.21957598725613
C        -9.21665981204456    5.81797561916107    5.62247605505510
H       -10.11528777990509    6.41497004073102    5.48446719304366
H        -9.01157210838034    5.28682450433096    4.69538730931500
H        -9.40907408567129    5.08302232503133    6.40131553149784

