80
CSD_code = KAMPEV | q = 1 | S = 0 | Stoichiometry = C33H29N10O7Zn(1+) | MND = 5
C         5.91875218128964    0.27705953355478   12.33945364251140
H         6.64284940290505   -0.26565326295890   12.96692126187422
H         6.01692565714091   -0.09411009463689   11.31478496666116
C         6.22848180960198    1.73685683078333   12.31030866751067
C         5.89775171288995    3.86502058835292   12.30699777776393
C         5.37489502532200    5.15141157380819   12.38062774372290
H         4.34016368195724    5.30703563496143   12.64189075639873
C         6.23835227723173    6.19326345905978   12.11720100408079
H         5.87406104386204    7.20788992847673   12.15619508230512
C         8.12264832686526    4.70186050844995   11.76357004019298
H         9.16301888791453    4.54558360774534   11.52973587841817
C         7.58311738932017    5.97123925115500   11.80510742502087
H         8.21740193283132    6.81849814246539   11.59814274708389
C         7.26110135722592    3.64607568712565   12.02589613611995
C         4.41311016063822    0.18407556951574   14.24122978792261
H         5.33554889838394    0.61270961057524   14.65023639822308
H         4.28091797058889   -0.80872562393846   14.69567582604965
C         3.29198731890335    1.08153043609703   14.66114214244854
C         1.78264228224982    2.07792200706834   15.90533648673779
C         0.90061270429029    2.53163358638295   16.87614571371337
H         0.84365465432510    2.08449918930344   17.85608891907394
C         0.09020201012385    3.59446237123638   16.53127847779550
H        -0.60835208904376    3.97741567355192   17.25874702139329
C         0.15190570159480    4.19339699487740   15.26928461876029
H        -0.49830109537393    5.02696727977794   15.05651221429963
C         1.02272195545551    3.74937652417865   14.29708603911151
H         1.09375842103213    4.21343605384413   13.32683626525493
C         1.83923570907440    2.67529793898272   14.63041971792313
C         3.05671410886170    0.19114948805121   16.98063787422097
H         4.12838094276978    0.21429423819924   17.18365549556604
H         2.75631875393025   -0.83602328801164   16.76140214743401
H         2.52762701999551    0.52339728203477   17.87035362672414
C         3.87463915416836   -1.07609719692059   12.21721334116956
H         3.77413716022290   -1.88974880102520   12.95134935990608
H         4.46343608565902   -1.46606843726540   11.38027328822206
C         2.52814873171798   -0.70330729228145   11.68733383126725
C         1.72746678040334   -3.01847287160365   11.23796558086707
H         0.85164918914445   -3.44387061905613   10.75462816710626
H         1.79601387651767   -3.41956121496043   12.25154352566381
H         2.61539234018565   -3.31626173568931   10.67794349169456
C         0.51712865403635   -0.84520393424380   10.82514272644456
C        -0.71641223951068   -1.19393601914967   10.29305752083823
H        -1.00452001059290   -2.22110900328232   10.13434655462995
C        -1.57076358285763   -0.15876292173833    9.97110744105888
H        -2.53850743622637   -0.38858051909622    9.55361129150996
C        -1.22015749894343    1.17990558373575   10.17106502518124
H        -1.92848326652676    1.94804358389944    9.90347236965878
C         0.00224598074363    1.53547469973720   10.69945931496737
H         0.29187774521329    2.56064738066205   10.86267488367781
C         0.87429098717898    0.50349833551118   11.02259463370435
C         4.67474173643527    3.67034935484926    9.42140260947549
C         3.51903301278544    4.14787828475430   10.14829779338111
C         3.19963745707367    5.53289189269975    9.89142598196849
C         3.93931535248433    6.33127192424631    9.05851870429915
H         3.64965524839039    7.36105422971830    8.89083275859310
C         5.08617619028912    5.82366937794593    8.44178967207428
C         5.44948794394992    4.50616931912736    8.62607557311975
H         6.33135726360242    4.11637087615691    8.13494611551272
C         8.64229793345588    1.57427495429737   11.71094217843690
H         9.49854278299421    2.21420864474265   11.91230236141369
H         8.62988110155098    1.31919697458529   10.64869078867114
H         8.73428990677025    0.66257111086628   12.29949500184982
N         4.54368442142513    0.08710888379303   12.78855892484630
N         7.43732082112005    2.27635076437371   12.05866569678122
N         5.28429300119117    2.64267468496987   12.45910148387276
N         2.72778516001501    1.06810181614879   15.88953838415371
N         2.79573664453262    2.02256683337575   13.89209159199674
N         1.59980302520104   -1.58681407473596   11.26067270171915
N         2.13772279428163    0.54170924729896   11.55825327816651
N         2.05947443497076    6.12281967428235   10.55868267898514
N         5.12054193820835    2.35889037709087    9.61142207789963
N         5.90965962947934    6.68879556532367    7.62790312268494
O         2.85125988661424    3.45519164640580   10.94697705623920
O         1.72472818279733    5.65723232879391   11.62455335951347
O         1.53041458795471    7.06051489832693   10.01230441047686
O         5.55332077402859    7.83593163512457    7.50626128373832
O         6.90534779687510    6.20120286683270    7.14420672156196
O         6.27885774880655    2.07986794975807    9.35508216445956
O         4.34809932238230    1.50708128141383   10.06963168417201
Zn        3.40614513564875    1.96573094017147   12.03028959004812

