31
CSD_code = KAMPIZ | q = 1 | S = 0 | Stoichiometry = C8H14AuN6S2(1+) | MND = 4
Au        0.50230009519852    2.25408168800799    0.44558937457969
S        -1.63387633043885    2.04078254064660    1.31239165634845
N        -3.57097375947080    0.95841010282461   -0.07436882417867
H        -4.05220634000712    1.18189331315497    0.78768371428533
C        -4.33167471951687    0.32808687716175   -1.12178339107175
H        -5.16363860939895    0.96957338235919   -1.41484623687584
H        -4.73231984759623   -0.62332342492477   -0.76973046272855
H        -3.68426954962394    0.15673213930004   -1.97688226948221
S         1.98658302494040    3.24488473455873    1.92032697347470
N        -1.58298065650482    1.02438091721861   -1.21489862178380
C        -2.29136984960694    1.27373785461578   -0.13997362158718
N        -0.32009924506846    1.37021939423026   -1.19097654843748
C         0.52730962679473    1.19546510547808   -2.17511759465282
N         2.12276815715412    2.18442590612417   -0.78153067331941
C         1.87461639450354    1.64321889988740   -1.94886013894038
N         3.28636392989399    2.64730448217467   -0.39841333997574
C         3.35966388316957    3.15545262851933    0.80815149043807
N         4.49131810901475    3.64520246950516    1.27785586602403
H         4.47139365117194    4.01615634860245    2.21948550941488
C         5.74417502584089    3.68294308690624    0.56937690227638
H         6.48856001930552    3.08246954815308    1.09426835004069
H         6.10456088654956    4.71040758082451    0.50917809434702
H         5.59789900581840    3.28813224003721   -0.43198364708595
C         0.11911718153354    0.56341164631316   -3.45754789123598
H        -0.94789688686355    0.36272024862393   -3.44592311634986
H         0.65567652664125   -0.37342247004378   -3.60325375941196
H         0.35598956435669    1.21675777634241   -4.29533330431973
C         2.92983030960557    1.49997904794268   -2.98652613529956
H         3.88072426023459    1.84907164422159   -2.59549475527197
H         2.67200020679295    2.08316232353445   -3.86973146458165
H         3.02375593557612    0.45888196769913   -3.29053213463912

