91
CSD_code = KAMQEU | q = 0 | S = 0 | Stoichiometry = C24H56CdN2P4Se4 | MND = 4
Cd        2.63367586861481    3.78817624445778    1.10588116238402
Se        2.74070005470640    5.39359649657222    3.23357244430710
Se        4.47395477669126    1.85676457536916    1.15720131175197
Se        3.11084269650686    5.23323353500491   -1.08649201106889
Se        0.21059059706701    2.66954000248460    1.11837153857181
P         3.91020177226297    4.11891049941852    4.54135444259686
P         5.79967643874181    2.71366689364363    2.64444858344365
P         1.07028475940004    5.46386388377143   -1.77976293176554
P        -0.25010002643128    2.85761487760311   -0.99112387618581
N         5.22407630248423    3.35430786449987    4.00650830373625
N         0.04375752689896    4.22209060391799   -1.79602831475140
C         2.76452413220466    2.89059193048220    5.35738491040690
C         2.28340534110863    1.88387026314197    4.32361619484968
C         3.47977343709933    2.20242795641094    6.51302563043139
C         4.54623587952591    5.20587392377350    5.90434525861259
C         3.39759379677312    5.81681115854086    6.69244735718259
C         5.42308370971359    6.29280278380683    5.30004318322017
C         6.89894732813988    1.33592145698130    3.22517538674932
C         6.03769570578020    0.24615845940192    3.84656796599595
C         7.72520409412130    0.77931067592365    2.07572925182453
C         6.92288146105806    3.94587018400902    1.80344431433288
C         8.06925875206890    4.32201690323394    2.73349696287954
C         6.11568546926841    5.16836961761948    1.39409431878448
C         1.17254823946294    5.98540539163414   -3.55782151064555
C         1.90891846093994    7.30924992824227   -3.69452041039881
C         1.87575105565382    4.89360208873668   -4.35103005627909
C         0.30058439730533    6.89654513979894   -0.86304631184893
C         0.08140755027257    6.50380967218650    0.59028499842881
C        -1.00418826890848    7.30470882924220   -1.53464895995351
C         0.53530251505972    1.42231432987872   -1.89026107357420
C         2.04635357556823    1.59874426339758   -1.89574144172325
C        -0.02122229513284    1.32586088172083   -3.30485315890833
C        -2.08412921048152    2.62606089807030   -1.15433946240483
C        -2.50411521323230    1.24902144479471   -0.66358929937666
C        -2.79014246435773    3.71791782798812   -0.36370163748950
H         1.90649801968567    3.46658044330447    5.72258557850654
H         1.67986981863048    1.11014520997529    4.79492670654925
H         1.66211838431985    2.36905669685739    3.56503275396287
H         3.13136524789377    1.40193149029629    3.83268055168616
H         2.88602444167883    1.36238299008677    6.87058436366040
H         4.44648264631071    1.82520249782352    6.18362258613055
H         3.64362035626163    2.88165371072412    7.34651918838120
H         5.15936040278675    4.55587713864548    6.53867241868956
H         3.78143624313683    6.53696813673035    7.41338806032614
H         2.72496756502241    6.34040493874392    6.01240003390324
H         2.82814065925941    5.06435959097557    7.23328769485645
H         5.85625725770431    6.91295278599546    6.08288672509872
H         6.23114367283316    5.85301725961014    4.71980150283742
H         4.82716399087742    6.92859622614495    4.64491240464340
H         7.54077264923672    1.77550721903353    3.99693966059948
H         5.43278021983760    0.65164092005519    4.65447699995550
H         5.37519249124833   -0.17847209883125    3.09202142631261
H         6.66124153834072   -0.55124460666082    4.24708594279769
H         7.06447876920603    0.47910158446896    1.26187348049832
H         8.43688392996510    1.50810127181697    1.69449947044037
H         8.27961569191047   -0.09793181879271    2.40555800675119
H         7.30322054372465    3.45007130757377    0.90297052803919
H         8.76777687279774    3.49872841691089    2.86458205878616
H         8.61644264161018    5.17052662297992    2.32522155219239
H         7.68145260911194    4.60102990321772    3.71180289681375
H         5.59949734967205    5.59468237226779    2.25671324438382
H         6.76652209172474    5.93420023906159    0.97582425559524
H         5.37701622851954    4.91096955625189    0.62926196312675
H         0.13532856526396    6.07266734087909   -3.90048284317854
H         2.88768871206938    7.23436321540217   -3.21965249997741
H         2.05827229973935    7.54579840159943   -4.74688164152743
H         1.36191378944144    8.12963798950599   -3.23543649897002
H         1.35802258553192    3.94398448314967   -4.23602429972847
H         1.90260500767729    5.14753773956457   -5.40926985142810
H         2.90040153779602    4.77898955177887   -3.99673935252967
H         1.02875851178429    7.71470928043316   -0.90681494184018
H        -0.51735483644382    5.59306245487775    0.65635671707501
H         1.03577124082706    6.33849562158154    1.09937993763800
H        -0.44261993152109    7.29359240443906    1.12565953900818
H        -1.54170187778787    8.01227040594732   -0.90496815497010
H        -0.82911906373114    7.77390798967597   -2.50019369788771
H        -1.63582533377105    6.43139122311697   -1.68824125193820
H         0.28181779847704    0.52466762353459   -1.31447297778730
H         2.52119104617861    0.81720240061644   -2.48626361385232
H         2.31923173632523    2.56408173633804   -2.32703788479449
H         2.45136476942609    1.53638938562558   -0.88115723756173
H        -1.05903956953740    1.00029796918546   -3.30662622440787
H         0.03381599063404    2.29578924853012   -3.79623652120270
H         0.56039599434670    0.61167964589736   -3.88599267886698
H        -2.30393341498823    2.74977803465997   -2.22075483764829
H        -3.59009965157924    1.16921721727919   -0.66161996416514
H        -2.10541913018916    0.45376707419298   -1.28938245401903
H        -2.14943831126426    1.10024075533286    0.35677975393526
H        -2.55369897057495    3.62051889927188    0.69609597781186
H        -2.47322681244094    4.70138329501010   -0.70340944559691
H        -3.86916323095054    3.64050712154896   -0.48537817122741

