64
CSD_code = KAMSUO | q = 1 | S = 0 | Stoichiometry = C23H32MnN2O6(1+) | MND = 6
C         5.86570026845097   -1.51889065549564    5.02065613372426
C         6.70265648190113   -2.17672428478426    3.90018396230312
H         7.63617068960970   -1.61591590270401    3.78020532576505
H         6.95017167942673   -3.20113445878887    4.20167815644145
N         6.04296443662003   -2.16726269465873    2.60873294646977
C         5.63592513903584   -3.29579205064293    2.13082970921030
H         5.70676926114940   -4.19518840249856    2.74522078361028
C         5.19484206708491   -3.49255514057982    0.78498177093991
C         4.60141296436567   -4.70286986572259    0.38613370248132
H         4.36532789655641   -5.44070759478744    1.13680589312758
C         4.31790748230322   -4.93486605688725   -0.93422081051382
H         3.84752223689686   -5.85644694434840   -1.23651020369126
C         4.65084034657981   -3.99290361399940   -1.91147108955429
H         4.42906118097802   -4.21437317528739   -2.94258083528630
C         5.26770777907979   -2.80663518641228   -1.56995520049831
C         5.53331215367148   -2.51574200953556   -0.19474247058073
O         6.16065681234978   -1.42968904867043    0.13509981015628
O         5.63508936851997   -1.82432799795610   -2.42433766462771
C         5.43116683025176   -2.01029946085386   -3.81561069001160
H         4.36080558272576   -2.14367428924210   -4.02183661504715
H         5.97043257410475   -2.90431384311229   -4.15466969586762
C         5.95419464463355   -0.77346701393959   -4.52681131430579
H         5.41884551678781    0.10712496686353   -4.18279628780677
H         5.81436529786663   -0.87944417807132   -5.59824432141013
H         7.01250347952594   -0.64395927588870   -4.31775201308396
C         5.04757038505534   -0.33852784966632    4.44968361994460
H         4.12096693773228   -0.72825405301418    4.01392993737561
H         4.78619798902474    0.33802422006725    5.27159737054066
N         5.73438700597984    0.37915832957421    3.39311076718588
C         6.14285415803227    1.57807886896307    3.64489232412339
H         6.05198065780005    1.97385472667079    4.65805822683167
C         6.61107254510420    2.49789403169333    2.65530162367911
C         7.20354996098132    3.71856903187260    3.02276876824974
H         7.41756572731354    3.90235168663502    4.06395479668125
C         7.51379430608567    4.65386747214020    2.07066655916970
H         7.98334341456633    5.58246130993840    2.35206223328216
C         7.20969409492124    4.42999356541036    0.72509898779031
H         7.45208651889407    5.19364769176048    0.00433558185886
C         6.59493111943413    3.26163475736460    0.32336087441667
C         6.30146742315707    2.24683349666289    1.28794341456634
O         5.67519032316401    1.16805899660099    0.93311603006537
O         6.25423435997042    2.93524837657702   -0.94443278028927
C         6.48816379322817    3.87255359299122   -1.98297218579821
H         7.56173724769694    4.09300688106820   -2.05250631782737
H         5.94894482944787    4.80501053295290   -1.77128962798737
C         5.99241009617929    3.25557922099163   -3.28015560009974
H         6.52766935158025    2.33156646066282   -3.48039817867300
H         6.15554181805192    3.94688744117583   -4.10127856580114
H         4.93083191763020    3.03644426581071   -3.20582954231858
C         6.81908328830675   -1.01466964924344    6.10501946963787
H         6.25936814092418   -0.63547259347978    6.95617099592779
H         7.45351955286126   -0.21926060806948    5.72085948273105
H         7.45701826394027   -1.82239638800480    6.45417736518800
C         4.89361930838347   -2.54080109758818    5.61207383617623
H         5.43826767501953   -3.33756107321810    6.11214008088742
H         4.27199229999065   -2.97687580574550    4.83349821777255
H         4.24377538178303   -2.06671881475124    6.34299573745219
O         3.68866296324979   -0.63752350755710    1.36301474006584
O         8.12516382947012   -0.19505821153719    1.55237790727993
Mn        5.90513976751072   -0.46602942573253    1.61759572625223
H         3.38595357679305    0.20575132428811    0.99575882891875
H         8.44170237031807   -0.68485925027461    0.77963152743494
H         8.36129070594740    0.73067752599684    1.40375613084212
H         3.46280472397381   -1.31538730197981    0.71152265451620

