41
CSD_code = KAMSOG | q = 0 | S = 0 | Stoichiometry = C18H16N4NiS2 | MND = 4
Ni        0.81472112073949   -1.28351248927289   -1.65002086684087
C        -0.13249097164488   -3.99433752449265   -2.16476531221083
S         1.39952133540173   -3.40488540992725   -1.62137471865843
C        -0.32623946778585   -5.42546286626369   -2.33817461287615
C        -1.54741114635487   -5.90768736483080   -2.81915660879086
C        -1.74355963742986   -7.26336814873487   -2.98736760930498
C        -0.72985714346963   -8.15807847465636   -2.67961737869287
C         0.48404568942207   -7.68913795693511   -2.20200703981365
C         0.68785918677296   -6.33431322426300   -2.03177991942270
N        -1.13336914159807   -3.18832943254715   -2.42971637943521
N        -0.86475141465332   -1.90107443756168   -2.24288334183800
C        -1.75296610271737   -0.96475133354539   -2.45892688708236
C        -3.13825953306944   -1.24272951433980   -2.93158850172607
C        -1.26070666248043    0.37338356280638   -2.19581711773647
C        -2.09691711053443    1.59413774015466   -2.36965721776453
N        -0.01682421176932    0.40321611025923   -1.79074957789837
N         0.60657253162631    1.53942552548399   -1.49914460466633
C         1.84962388345345    1.38939412310178   -1.10696071341212
S         2.59118176856855   -0.16838272870760   -0.98766327028210
C         2.62008280787479    2.57380971593554   -0.76144810874770
C         2.02348275486092    3.83637530645897   -0.83246113053117
C         2.74436951490101    4.96696441549617   -0.50579225323987
C         4.06727034329609    4.85886204502286   -0.10456338711638
C         4.66721084770254    3.61138358515928   -0.03172010971770
C         3.95229779623085    2.47590099681759   -0.35674492010511
H        -2.32823650423170   -5.20272095417136   -3.05639219926365
H        -2.69000995394194   -7.62727102230454   -3.35996418957161
H        -0.88621957906177   -9.21859393544888   -2.81140758953051
H         1.27455841316673   -8.38446965712271   -1.96162096724382
H         1.63135164149802   -5.96538406440311   -1.65977798381407
H        -3.86657511846998   -0.81450293278023   -2.24507400205889
H        -3.29810499339488   -0.79912987492477   -3.91353454088016
H        -3.28550745383537   -2.31708349831915   -2.99543623824400
H         0.99391971250456    3.90844069657621   -1.14504663148108
H         2.27560865625653    5.93846065634827   -0.56278372102279
H         4.62906558073455    5.74521498475274    0.15090302999956
H         5.69735214128334    3.52518782381626    0.28057204972004
H         4.41608707764805    1.50312699341989   -0.30118315536839
H        -1.49364591359807    2.47386142561941   -2.16461463326298
H        -2.94412830018931    1.57154874758932   -1.68534098346790
H        -2.48500244371077    1.64621239073731   -3.38549665659719

