31
CSD_code = KAMSUM | q = 0 | S = 0 | Stoichiometry = C14H10CrO6 | MND = 9
Cr        3.80794796499866    2.64949475409884    2.69598457466752
O         1.79820530191520    0.17981317009593   -0.14417467470019
O         3.92523563979090    2.45649375788625   -1.08616590936604
H         4.48061135406222    1.81346676997530   -0.63018968710902
O         0.86462432951120    1.07004361960777    3.46206588156506
O         6.23980512373807    1.78856292551720    1.20924650470845
O         5.96122703008088    3.83479556335240    4.37389274611428
O         4.55637178412975    0.28298735527240    4.34341719417358
C         2.07954941643362    1.28456194410146    0.24060575966526
C         2.68011549612128    2.55588846900755   -0.46966250187584
C         2.61861461244960    3.18602799918961    0.92678264042737
C         2.76735164015469    4.38844009649818    1.59291769494305
H         3.14280986379299    5.28697908085408    1.12195465292113
C         2.38321338208375    4.36371418807442    2.95396864865521
H         2.45300976944173    5.27479369943299    3.53734347076600
C         1.75504086709506    3.24954557962110    3.53777078492416
H         1.37245144463977    3.31070861084958    4.54871182851440
C         1.52447332030513    2.04751078910527    2.82881932833254
C         1.99990605008994    2.03107326931244    1.49712593645535
C         0.83809064141481   -0.20797963788385    2.84447047895728
H         0.27890242730120   -0.85068908333753    3.52035840316215
H         1.85320395793355   -0.59521816134855    2.72007613663953
H         0.34416823055935   -0.17449773398339    1.87141013542110
C         1.66141455487044    3.15001566590967   -1.39915225941927
H         0.71677015072969    3.39175835246926   -0.92879049309919
C         1.87049481599078    3.34389686871858   -2.68771006663200
H         2.81635700710152    3.09493144225232   -3.13474967644698
H         1.10969723842405    3.75811550515416   -3.32570009140781
C         5.27409059541642    2.13522806633328    1.73692052854599
C         5.10263623747418    3.41508164928778    3.73170245281124
C         4.23040975194930    1.18485542457590    3.70654957768630

