62
CSD_code = KAMWEA | q = 0 | S = 0 | Stoichiometry = C26H28N2O2P2PtS | MND = 4
Pt        1.20259237859387    2.70065121303984    4.20119701073898
N         1.57809888322680    4.10484314866833    5.61307847936473
S         3.13966463822868    3.91947225712272    5.12009109860904
O         4.11025260026222    4.34685625234922    6.08828515026317
O         3.25150907136293    4.50221475525579    3.79057715285351
N         3.06621155994689    2.30268238262525    4.92496914626769
P        -0.59467133543933    3.69666122615488    3.22824543065050
C        -2.25630831849450    2.96987785627182    3.37798817938191
C        -3.39170925204473    3.50302374549544    2.77733477040094
C        -4.61950651125930    2.89120095171867    2.95848405794255
C        -4.72314005109310    1.75295139156915    3.74228188344782
C        -3.59686915346598    1.22445040244344    4.35277872806960
C        -2.36828686190495    1.83264253628593    4.17085977440309
C        -0.21243938452841    3.77022856061651    1.44831833985195
C        -1.03581775574481    3.31419291841772    0.42735684755606
C        -0.60830476293748    3.39022958720766   -0.88808276098087
C         0.63556072480802    3.91840575590513   -1.18777629517199
C         1.46741631673371    4.35758881795069   -0.16923557124522
C         1.05288424031926    4.27455838338362    1.14594755373153
C        -0.88657221083491    5.46822355184076    3.59960492046060
P         1.33677426859497    0.88779322062159    2.81345958467121
C         2.19677305745200   -0.49291231801352    3.62423601343468
C         1.87650911428500   -0.73865082967915    4.95506852470722
C         2.47927884776073   -1.77982075690786    5.63455539791302
C         3.40924093531455   -2.57847882346655    4.98678199033029
C         3.73163331424847   -2.33520722123610    3.66211970003383
C         3.12610789231766   -1.29567229799620    2.97693607272501
C         2.36879982314850    1.26358140948134    1.37215364514042
C         2.02702287788994    0.97741435331910    0.05560438646021
C         2.88016427474390    1.34341083749474   -0.97133969183258
C         4.06785914820422    1.99849312155439   -0.69311987693107
C         4.40568732706156    2.29533748698022    0.61863084863292
C         3.56024293155696    1.93318687362713    1.64954632220362
C        -0.12028093879735   -0.00298887738429    2.12234751416859
H         1.28276099205643    5.06063596525347    5.45854368640816
H         3.12342517175706    1.87707066045650    5.84165866093745
H        -3.31783514986623    4.39313401974798    2.16887386280359
H        -5.50039355654999    3.30481343420530    2.48966310727545
H        -5.68482466666543    1.28205197034885    3.88150195473149
H        -3.68110471912467    0.34367283424539    4.97185040972970
H        -1.46810975135711    1.45352711465096    4.64613863099633
H        -2.00726855815622    2.89837907071775    0.65690830830597
H        -1.25096501465972    3.03503486430060   -1.68085039499869
H         0.96138263188379    3.97896550196934   -2.21552198346915
H         2.44490116095732    4.75272790219194   -0.39961184009966
H         1.71545226945966    4.57999389406865    1.94838741932165
H        -1.19513995581294    5.56368719810954    4.64011437500475
H        -1.65217544411989    5.88504129645019    2.94547454377874
H         0.04946031428419    6.00499430149555    3.44975514874304
H         1.16440334435763   -0.08539640219469    5.44804082006962
H         2.23491933468780   -1.96689524936166    6.67007730954322
H         3.88898818548213   -3.38705965836882    5.51829744656396
H         4.46139548479379   -2.95503890022967    3.16184124603115
H         3.38249024886997   -1.09867970222678    1.94512037612233
H         1.09847458136579    0.47862988491048   -0.17743822282482
H         2.61318091193549    1.11796672484044   -1.99388745074473
H         4.72699646684969    2.28309467361710   -1.50049404281918
H         5.32423655265160    2.81827176142938    0.83774930965488
H         3.79843916905193    2.18066531210802    2.67585685875494
H        -0.72150847312339    0.67670370028800    1.52135125309410
H        -0.72485047442509   -0.37046748432542    2.94956305581837
H         0.21049125377941   -0.84946656140980    1.52245182226439

