55
CSD_code = KAMYOM | q = 0 | S = 0 | Stoichiometry = C24H29ORe | MND = 8
Re        3.66208793857067   10.38454255175763    2.46245235714343
O         4.87007811986414   11.07726486742828    1.55481014503857
C         5.20335780953599    9.41652962493759    3.72236588927657
C         3.79411702650977   12.07995901571494    3.87941983439064
C         5.63305172980119    8.11213749250742    3.16884401898110
C         6.11250262906209    8.02348810348040    1.85998001786564
C         6.52055719278271    6.81418911116022    1.33360648405919
C         6.46891577791213    5.66361278348490    2.10584938566322
C         6.01582206725673    5.73810271188863    3.41149641104686
C         5.60252342805363    6.94976459428447    3.93735020026612
C         2.94111901430027   13.21699145764412    3.46435473888816
C         1.99978092693796   13.77412919802948    4.32807179278120
C         1.21609525977784   14.84399763552587    3.93212110351651
C         1.35734424029382   15.37909561943052    2.66360515681720
C         2.30015660248166   14.84564336000255    1.79791266539385
C         3.08514538458060   13.78168044549733    2.19499788679378
C         1.25271536498926   10.42407191460757    2.47640976948784
C         1.82159831800333    9.46881216357739    1.56664832366700
C         2.33591961972833    8.37582412570389    2.34431400206170
C         2.03878735719261    8.64241788766199    3.71795226772072
C         1.37838700339687    9.89272631902382    3.79869000697919
C         0.37216830149190   11.56333487270594    2.06578429913990
C         1.59546337749482    9.44468193622458    0.08261012872607
C         2.75662125419113    7.05660062867401    1.77475840063672
C         2.21808550581080    7.70524919066753    4.86675078880338
C         0.76968862086554   10.44827654096348    5.04416817345423
H         6.14746284248568    8.92552303805805    1.26242566683416
H         6.88359956069237    6.76320469995446    0.31708202466791
H         6.78582406038436    4.71649150561076    1.69446889640609
H         5.98447622769421    4.84804085503723    4.02436522373971
H         5.27009248256619    7.00065141799898    4.96494677331186
H         1.89564418889181   13.37716166665362    5.32843736368785
H         0.49212977242059   15.26211512916571    4.61758644673038
H         0.74128148900084   16.21026229628667    2.35325325516100
H         2.42136448093917   15.26640953505126    0.80997976665049
H         3.82150833524054   13.35829051869473    1.52385152214095
H         6.06492845932746   10.09163513462240    3.75428838444654
H         4.82962476484316    9.29586693739954    4.74275368875276
H         3.52588429047982   11.74673231440085    4.88556657370072
H         4.83929043354439   12.40613104000588    3.89739735077797
H         0.27222356903368   12.29732583990613    2.86104362140561
H         0.77019230686181   12.07355650608275    1.19053746845013
H        -0.62273000072687   11.18709168034898    1.81717802125669
H         1.54975067814968   10.45314239472064   -0.32527646706413
H         2.38880747011560    8.90156253722741   -0.42852270033943
H         0.64809829516370    8.94676322368963   -0.13689889509560
H         3.34977750010823    7.18858408449616    0.87177135105907
H         3.35240505771384    6.48732435145810    2.48340095597914
H         1.87237501667520    6.46890645923930    1.51795056916032
H         2.89457752785582    6.89506486409424    4.61002926890851
H         2.60696126880177    8.22324769877612    5.74300907029270
H         1.25309506211914    7.27267102057953    5.13927235630838
H         1.46067845459905   10.38514986568847    5.88434443920513
H         0.47670926872254   11.48549805955403    4.90885535841546
H        -0.12082273459344    9.87197117261579    5.30407839644375

