41
CSD_code = KAMYEF | q = 0 | S = 0 | Stoichiometry = C19H16ClNOPtS2 | MND = 4
C        -1.47062184838883    5.19885520798130    6.86222944931196
C        -2.45656265145053    5.36132318919921    7.82834642377521
H        -2.17520669500839    5.60103845298876    8.84239758735104
C        -3.79587541694792    5.22337200329535    7.52038236147646
H        -4.54827664420210    5.35269020030498    8.28362766469466
C        -4.18233576904281    4.91634072827565    6.22033443425518
C        -3.20141732735073    4.74701925915879    5.22683620945926
C        -1.84275499437190    4.88442997719453    5.53368573953128
C        -5.52193020119829    4.73759775269897    5.72144210528541
C        -5.53930880491518    4.43446917233067    4.35281121842044
C        -6.72041820992361    4.22196185751046    3.66353628763763
H        -6.70517283132899    3.99007564540447    2.60989303779501
C        -7.90975431950898    4.31524911255843    4.36090585660563
H        -8.84417139655478    4.15358179819965    3.84505778155714
C        -7.91398060549714    4.61518312580760    5.71968426046267
H        -8.85472770138840    4.68330376897102    6.24521455781598
C        -6.73310360375101    4.82614333628053    6.40182271576842
H        -6.74234283846119    5.05852016895823    7.45571338314683
C        -0.72298601011123    4.73797489342437    4.61806392191518
C        -0.79658852797906    4.43260853479395    3.25863279841471
H        -1.75365479076278    4.27961574127723    2.79232949209780
C         0.35700878128364    4.32552091058991    2.50676785194435
H         0.29995520961669    4.08911933187163    1.45535686463177
C         1.58298183566550    4.52628498935246    3.12355219505438
H         2.50787599045643    4.45337712405854    2.57557466649744
C         1.60051699110964    4.82553410883799    4.47271863249650
H         2.53740061722581    4.98832495052420    4.99048992318624
C         1.52780046500919    7.40874823081915    9.62960512985993
H         2.51529100517933    7.30818198650216    9.19565860509063
H         0.97914000924192    8.21008938040569    9.14426498543526
H         1.57256272439942    7.58207917685662   10.69857745575868
C         1.67247774907544    4.71614200272224   10.26684806223050
H         2.65854194109521    4.72019109074945    9.81834996376895
H         1.69775072270047    5.03912078523022   11.30120950500504
H         1.22639586882494    3.72896313304487   10.19496802199246
O        -0.60852056543301    5.99107032499876   10.15258165893557
S        -3.92855314318280    4.36710089332403    3.67547811200061
S         0.60174347233612    5.86756760816774    9.35153693468742
Cl        2.85454372975987    5.51396562073659    7.36189405536417
Pt        0.50621895353547    5.36077255166045    7.14799706219164
N         0.48985883024619    4.92849187293404    5.20002302708801

