83
CSD_code = KANBAC | q = 0 | S = 0 | Stoichiometry = C32H44FeN2Si4 | MND = 2
Fe        3.63060582151675    6.33200206140864   13.28511680758895
N         2.69790413547057    6.35847269876447   11.65875068920136
N         4.56492081228069    6.30700641512573   14.91202665200674
Si        1.79476238790836    4.95429441716933   11.23073127889393
Si        2.80881936555484    7.79092699025229   10.70672680900093
Si        3.73622339563771    6.85863830659915   16.31863223134318
Si        6.18865491538052    5.73054702339432   14.87976017887252
C        -0.09011219352372    5.12800393097390   11.51344648868199
C         2.04535413648839    4.38828982773914    9.42424628375574
C         2.44088344624882    3.66719199304326   12.46376209974113
C         3.02766128440102    2.46039215648032   12.10677874883061
C         3.52511364843887    1.59374955539183   13.06570001034864
C         3.44198834045618    1.92484384467426   14.40784997924243
C         2.85454996617399    3.12214045379617   14.78378496412838
C         2.36283849201433    3.98351492178803   13.81829744930204
C         1.13336396571094    8.39998636926713   10.02257857328464
C         4.01071628329351    7.64435800272842    9.22469510820094
C         3.55476562529061    9.03465387131440   11.92806458450109
C         2.95705471878924   10.23459412285730   12.29033102853547
C         3.53857874850846   11.07091423053790   13.22858676069807
C         4.73801652630101   10.71608995472142   13.82292520093310
C         5.35207817890194    9.52511730992766   13.47034215923941
C         4.76159444745942    8.69341029842467   12.53465752176820
C         4.23217350995664    8.62380419845412   16.86732791995096
C         3.93588775469492    5.71740025730412   17.83657828434562
C         1.93695340838509    6.92597592666591   15.72450916841327
C         0.88824315012749    6.22930832144750   16.31023671404434
C        -0.39237483741906    6.28750767100320   15.78619322760014
C        -0.64479114035266    7.05043800484128   14.65830507921843
C         0.38797598775949    7.75644830478290   14.06264346303867
C         1.66544824968281    7.68973494082913   14.59138735887026
C         6.39014271786814    3.94825262017604   15.54746503616165
C         7.42645400400490    6.83303344002870   15.82776586992627
C         6.56510678317011    5.69005005087456   13.02185690072736
C         7.60236096289689    6.38418428450963   12.41306909405103
C         7.78579976398450    6.34091213343127   11.04104323584080
C         6.92648595869694    5.59582768123930   10.25080607316000
C         5.88808982022933    4.89338614398046   10.84064554871763
C         5.71021219290239    4.94525707252627   12.21235005070362
H        -0.60767651776403    4.19796506312175   11.29916614457241
H        -0.51390649376017    5.89647273373590   10.87639243302881
H        -0.30366656425183    5.39721022769173   12.54243641882215
H         1.54901000716746    3.44183055228708    9.23618618914977
H         3.09314046182784    4.27415304149752    9.17086194408723
H         1.62364197600393    5.11956020113569    8.74346839494391
H         3.09525204572787    2.19252265117694   11.06264419738075
H         3.97706135849013    0.65795129776827   12.76807862914442
H         3.82629009644645    1.24732316947575   15.15713292599009
H         2.77259698762398    3.38412667724621   15.82754836378138
H         1.85413090920299    4.89097054127134   14.11754841398917
H         1.23627287949627    9.35919599785815    9.52581536077457
H         0.38597844369166    8.50346612547354   10.80097797540285
H         0.74968149782537    7.69393928723992    9.29439231259733
H         4.10396262700164    8.58905833225433    8.69785856534415
H         3.66801410044408    6.90125870887689    8.51309871116242
H         5.00064910010980    7.35061434507867    9.55745211983261
H         2.02285834209717   10.52111507441528   11.83029239946631
H         3.05822063978196   12.00155359713654   13.49638587279381
H         5.19544908599824   11.37022907651438   14.55159225525933
H         6.29344387468563    9.24578910845211   13.91809839405131
H         5.27102627797192    7.79123027836328   12.22092378260023
H         3.64752839399156    8.94991202638530   17.72207377462153
H         4.07429238528279    9.33722809192492   16.06541823995132
H         5.27910768003319    8.66802570256932   17.14669168022767
H         3.30172113311335    6.03802113311880   18.65664518884787
H         4.96167459030336    5.74207928563396   18.18764436849938
H         3.69454883469143    4.68538528190305   17.60893814007905
H         1.07496201339787    5.63309685992408   17.19124746293305
H        -1.19602305227009    5.73922239457021   16.25744244844083
H        -1.64481028485897    7.10027013829823   14.25136406652377
H         0.19963100837039    8.36410567814279   13.19082110878776
H         2.45756618731874    8.28650221597811   14.15762698033832
H         7.40655295235447    3.59036237121425   15.41490527655024
H         5.72709011023735    3.26387509585437   15.02886097568020
H         6.15673396154120    3.89621655311942   16.60524482335488
H         8.44595796095276    6.48738904195297   15.69148530646250
H         7.21067852369601    6.80506406304691   16.89017384467557
H         7.37854690198566    7.86925389698673   15.51305278278921
H         8.27907053721048    6.96611451390935   13.02129021115106
H         8.60051576511487    6.88649867212310   10.58592304060483
H         7.07226172258099    5.55672009357650    9.18061756144328
H         5.22071885717781    4.29885696485150   10.23581067524876
H         4.93443794666902    4.34950402837274   12.67559560574740

