66
CSD_code = KANGAI | q = 1 | S = 0 | Stoichiometry = C22H37N4NiO2(1+) | MND = 4
Ni       -1.47995387370192    0.72949453869455    4.00325438623091
N         0.22945808357870    1.42489551262958    3.29434379366288
H         0.60208111318399    2.15847728535134    3.90185725478983
N        -2.38265744709351    1.76329660470385    2.57742041273075
H        -2.66460957322259    1.11490055881114    1.83759777455586
N        -0.52289399665358   -0.24138802252038    5.16174806563830
N        -3.24079053242754    0.42945892915557    4.69288460857611
C         3.15098766550557    1.08477477662796    4.69761095207151
H         3.19991752754419    2.16548342662398    4.76467013537444
C         2.60517576490967    0.56281793007874    3.38242493331504
H         3.14175321290978   -0.33686080389302    3.08597176804451
H         2.76154600610856    1.29922999327936    2.59227960136631
C         1.10494976595383    0.22630263384619    3.47048503923254
C         0.72515432239479   -0.31500773367233    4.84130166034973
C         1.79379450516309   -0.82736064425375    5.75272836540654
H         2.29384849998889   -1.68734007931354    5.30683416263863
H         1.35070684803095   -1.13850383859544    6.69824523755803
C         2.74936101284202    0.33592308232634    5.94988775034860
H         2.52301499703146    0.92989060607697    6.82636897007546
C         4.18545184424437    0.32354581757364    5.49485782609480
C         4.84466811858537   -0.92532979869568    4.96050408660188
H         4.16413928196589   -1.58157781712696    4.42634701317852
H         5.27087448850955   -1.48981039552909    5.78712599295577
H         5.65409123288961   -0.65322221129498    4.28545131019047
C         5.14693621821787    1.15634302298722    6.31700777490821
H         4.67192831864325    2.06153875896353    6.68655644579786
H         6.00832705057372    1.44043959600156    5.71603549016653
H         5.50260984829722    0.58440815038128    7.17138240856229
C         0.70905693244107   -0.84922676625575    2.44930941136018
H        -0.38496763296043   -0.95392745648805    2.43156676956940
H         1.12913103108595   -1.80606426410953    2.74807687136742
H         1.07731680271136   -0.61838223862466    1.45293372298849
C        -0.03056139294689    2.00225758880643    1.96112854352127
H        -0.07080478068296    1.19841955768046    1.22552410761944
H         0.74413278164716    2.71349488271308    1.65585338547027
C        -5.48527935535450    1.52113186429370    1.65012334309643
H        -5.11708695223479    1.11512856262620    0.71492448869636
C        -4.69099417298084    2.69735244846933    2.18237193038816
H        -5.35760123386655    3.41663688139654    2.65503197817446
H        -4.19454141940849    3.21940645030633    1.36260143778949
C        -3.63448136198999    2.25786558338119    3.21514018356117
C        -4.14209742171286    1.10506832210800    4.07942241326650
C        -5.60308587543352    0.82681616507280    4.11993566417319
H        -6.14222389460730    1.68960464422255    4.51052613917100
H        -5.80477128095019   -0.02779454425308    4.76410083133975
C        -5.99466904364299    0.53698938812784    2.67968842981220
H        -5.94709456779524   -0.51525845587035    2.42906161809764
C        -6.96962818065611    1.37851482298977    1.89849914667829
C        -7.78220253347329    2.47456161140609    2.54493756338337
H        -7.27498863414564    2.96634095796300    3.36972930575332
H        -8.71058149011744    2.05644298133236    2.92808865594921
H        -8.03391543353419    3.23077098397755    1.80362752127652
C        -7.76093059992925    0.65075567243102    0.83147111511462
H        -7.16794718291613   -0.12795722026007    0.35858187624742
H        -8.08746856446455    1.34872703024367    0.06338532511348
H        -8.64387932150764    0.18935407462347    1.26850498248293
C        -3.30566549413208    3.39415211542204    4.19368810618046
H        -3.10309836177794    4.32528706003653    3.67090406513625
H        -2.44344568917929    3.11280143038266    4.80800658002617
H        -4.14853542495849    3.56069088281595    4.85929314660720
C        -1.40078704890530    2.70908764195522    2.01081942939882
H        -1.32530706052878    3.57735702724500    2.66569806647214
H        -1.67998430148977    3.05263536463234    1.00883609405118
O        -1.07061867199402   -0.69611227147498    6.21025805784618
O        -3.58724803463946   -0.55196415760097    5.56329612998904
H        -2.72091543693556   -0.80468450093851    6.02237034240560

