44
CSD_code = KANHUF | q = 0 | S = 0 | Stoichiometry = C11H25N3NiO4 | MND = 6
C        16.22648059173461    1.15409429929674    6.18268646943344
H        16.23815430730659    0.79487030668147    5.13051883583606
C        14.25777164733677   -0.53295677666549    8.58943789237618
H        14.81256038744531   -0.99661484269378    7.73349514630333
C        14.23832460813785    3.66196562264010    8.77280601702047
H        13.46805781744941    2.90697172673065    8.62963457426499
H        14.71169934421322    3.83566357869765    7.80872155788907
H        13.77391381014372    4.59012068759775    9.13415619047296
C        14.50011947129490    2.82549760225474   10.97510658026149
H        13.81801695361262    2.00324738936316   10.76864853368401
H        13.92968445646594    3.68623760153889   11.34798257809888
H        15.19722531018701    2.50301943959249   11.74611004980750
C        16.25399173677130    4.16153475780173   10.00011574991878
H        16.68267092049377    3.98078202357454   10.98971465810763
H        15.83479492937767    5.17959755563748   10.00794846085036
C        17.34139749519349    4.07552079671225    8.93079955487149
H        16.92056555783444    4.40049189811938    7.97730945232193
H        18.17763392989118    4.74391716316203    9.18769430737153
C        18.64815849814629    2.68300341013013    7.52633166689577
H        18.04853711445822    2.99434470471717    6.67405930111563
H        19.01427254247809    1.67930102545485    7.32820261925670
H        19.50200008912101    3.36548734110288    7.63036283440803
C        18.79426908489410    0.75134183749414    9.95291173805728
H        19.22680451906603    0.37743633446893    9.02349091957347
H        19.47442249573125    0.48381843307091   10.77837064429193
C        18.66671591083428    2.27415805804842    9.87803229231175
H        18.21461438753718    2.62917335696072   10.80436749388624
H        19.66585394182027    2.72682135446786    9.79544992068971
C        17.48985646656491   -1.24390122506386    9.63354478555181
H        16.51233508642042   -1.69064091923935    9.80260109417219
H        18.25016552462316   -1.84417294931848   10.15355113006663
H        17.68195331735588   -1.24735602446606    8.56302129399605
C        17.08043032916116    0.12221899691811   11.52686046780152
H        16.05306177592666   -0.22727530153980   11.60351909921287
H        17.13739586687366    1.12211405149302   11.95245456080707
H        17.72917571592134   -0.54214848463964   12.11739864402612
N        15.21376907134895    3.16087789898306    9.74625911396617
N        17.82806705838604    2.69666393679827    8.74086910939636
N        17.47622703959434    0.13403691497797   10.12262185877939
O        14.70737360568948    0.58290198473177    9.00967367699987
O        13.29250771597027   -1.09637590229331    9.06036645365143
O        15.73687110827370    2.25693656182081    6.43661047395810
O        16.76007163498633    0.40150611503616    7.03124291619869
Ni       16.21182682392747    1.53506765984402    8.71413928203839

