23
CSD_code = KANJIS | q = 1 | S = 0 | Stoichiometry = C10H8AuBr2N2(1+) | MND = 2
Au        0.62466449838340    7.16590908429523    7.57423512600463
Br       -0.70342761912827    8.81903171908793    2.23484114905014
N        -0.19001863221024    6.75826640292371    5.74801025668252
C        -0.19112455154982    7.68132562444291    4.78663121307572
H         0.26039845056779    8.63535178418488    5.00920143020606
C        -0.74655323935822    7.44948652007514    3.53527871187237
C        -1.32513492143487    6.21415473981705    3.26312751172213
H        -1.76395334165159    6.01142999846279    2.29838841011386
C        -1.31663122690668    5.26294817544940    4.26868004214537
H        -1.75143320134882    4.28950966407571    4.10905854879526
C        -0.74354433725220    5.56906652298520    5.49074343756330
H        -0.72639629339263    4.84268437378718    6.28721403381129
Br        1.86141499644304    5.51542296142691   12.93238253846749
N         1.42816953685452    7.57165472032294    9.40583972048483
C         1.41193266517546    6.64827409607945   10.36685413500090
H         0.97572282481746    5.69009328656535   10.13202554011860
C         1.93058407791862    6.88484534276917   11.63293616444967
C         2.49008677616186    8.12538396783768   11.92076868965348
H         2.89783460249819    8.33282518632982   12.89805410303171
C         2.50364113855852    9.07546358552964   10.91418893425485
H         2.92639896501820   10.05223948835919   11.08536989546809
C         1.96679392498814    8.76456560673598    9.67691833774390
H         1.96707490684851    9.48996714845728    8.87935207028388

