49
CSD_code = KANMER | q = 0 | S = 0 | Stoichiometry = C21H21O5PW | MND = 6
W         2.34922173759151    3.06615740042528    1.99030205231239
C         2.03314619483286   -1.48279832053704    3.12764168808373
C         1.24844967581199   -2.47832395801428    3.92905190859848
H         0.22868971462187   -2.10376460212022    4.04372778740993
H         1.67865389951629   -2.57170603935266    4.92908753456778
C         1.17502676094449   -3.87400151571882    3.29247569545848
H         0.86376618012088   -3.77903362095292    2.24926331165710
H         0.39376686170853   -4.43227918821911    3.81467854796071
C         2.46462072333501   -4.69617460292679    3.36256906733244
H         2.84022216583403   -4.69724376160060    4.38689801597387
H         2.19834674916943   -5.72809165859638    3.12190696497449
C         3.57016861841899   -4.24007505191911    2.40020554975184
H         3.99736672375767   -5.11403192445196    1.90293838177206
H         3.12865307539602   -3.61754101099179    1.62118286203512
C         4.72623870654208   -3.48422742093376    3.05600715698009
H         5.41609908679491   -3.16887169005588    2.26911324371660
H         5.27104532711406   -4.16147657231853    3.71738058092523
C         4.29503050883959   -2.25649633405144    3.87024491644543
H         3.81057208127156   -2.58908016691319    4.78933180626389
H         5.18763012469491   -1.69202927310401    4.14903184167510
C         3.35765133165393   -1.37377322730924    3.10936144836826
C         3.94349429477864   -0.29958321090581    2.23178253232682
H         4.57180656197309   -0.72155005736717    1.43959627462687
H         4.57051711504421    0.37986141091113    2.81788117082669
P         2.51070471729749    0.63083001030944    1.51165799658733
C         1.26180886044441   -0.50292150197810    2.28130679854924
H         0.56988589763504    0.07740609970425    2.90040611776355
H         0.66512005262130   -1.00751421476348    1.51326845562755
C         2.52126236109137    0.04624572242424   -0.21543761217959
C         2.45410824619742    0.95849662241677   -1.26046551226145
H         2.39745763897006    2.01706168788190   -1.04217623647204
C         2.45917377745104    0.51839172560546   -2.57309769512868
H         2.40559376591743    1.23425738675324   -3.37978940814894
C         2.53210665664437   -0.83583803377172   -2.85030573491690
H         2.53552971019669   -1.17950249334124   -3.87393176716536
C         2.60086092118831   -1.75219561685213   -1.81207518652521
H         2.65862268187413   -2.80952224284788   -2.02658582041553
C         2.59524247783115   -1.31476340753796   -0.50181675792034
H         2.64880181127350   -2.02919881687982    0.30780928987541
C         0.96234252760095    2.72363479183421    3.38417817963211
C         0.88399650395859    3.26880478046634    0.64349318684465
C         3.78452379590618    3.44007565850396    0.64789085749659
C         3.75787549889584    2.89760444805088    3.39441816663116
C         2.22997217922988    5.00581898743899    2.38821211714837
O         0.18471413370624    2.56330516269837    4.20549131082940
O         0.01013814169945    3.42081613433057   -0.07595929045658
O         4.63469132422683    3.68722002165856   -0.07364420893305
O         4.54211750755112    2.83971068213939    4.22310485626474
O         2.16266459082566    6.12171080275820    2.62448755722603

