23
CSD_code = KANPUL | q = 0 | S = 0 | Stoichiometry = C7H9Cl3IrN3 | MND = 6
Ir        2.49131224784190   -0.59439282830846   14.71458725616130
Cl        3.82814780984441    1.21088758844070   15.16309009800052
Cl        4.42354331685105   -1.89468593079480   14.30166521438890
Cl        0.54401492222336    0.66414457428888   15.19773970401295
N         2.62388287919230   -1.08187232592396   16.70558052533903
N         1.31115162613885   -2.09554181104245   14.11827099975798
N         2.31116559684609   -0.19363407666326   12.82388223884489
C         2.92958402086487   -2.32413193384746   17.08652118123431
C         3.06493601843130   -2.68634126500978   18.41388504027266
C         2.87699819002131   -1.72768768397375   19.39690900005924
C         2.55844788944530   -0.44008325514304   19.00008209510124
C         2.44092543378589   -0.15683633502021   17.65053544830579
C         0.99945438023937   -2.06907943470917   12.86023435142789
C         1.57269301783037   -0.99333750717080   12.12243425737838
H         3.10320234677082   -3.04572712710289   16.30090642998567
H         3.31962095830522   -3.70351542311930   18.66548213109045
H         2.97953927545777   -1.97800909172639   20.44181811815024
H         2.40418565987023    0.34590843618997   19.72151408784942
H         2.19279774625134    0.84152811334620   17.31863537755594
H         0.90352627036970   -2.84508746850315   14.67049977871083
H         0.34928350510870   -2.80030275644369   12.39389150004400
H         1.39538895228090   -0.86055358268746   11.06200118221839
H         2.74389793602558    0.59705112492598   12.34713398411094

