24
CSD_code = KANQAS | q = 0 | S = 0 | Stoichiometry = C7H9Cl3IrN3O | MND = 6
Ir        0.68582829504147    6.39892914930635    4.84012830574326
Cl       -0.91950614677393    4.77789290007199    4.63275815516601
Cl        1.03104346389199    6.45832920237886    2.50862599770876
Cl        0.32058908617568    6.48182721049419    7.16826742615249
N        -0.77619913695281    7.80936559487225    4.60138003309386
N         2.34506306303629    7.65125471721213    5.05232842478268
N         2.09435771663026    5.11987409717195    5.05381824997243
C        -1.70965941532020    7.68394001084975    3.65477124228102
C        -2.72310219175070    8.61061428624736    3.48294838484946
C        -2.77970637877480    9.71487147864133    4.31618846371537
C        -1.80605433248824    9.84565727414192    5.29382843141527
C        -0.82684542493695    8.87598742789651    5.40263327593007
C         3.44010210673358    6.98867969951162    5.18654804292134
C         3.30476311399503    5.55041938167412    5.19485749477522
O         4.61948011888515    7.60755541351968    5.31078019269064
H        -1.64599849133970    6.81526662665145    3.01469959464872
H        -3.45424211825915    8.45725071798496    2.70583050819481
H        -3.56082292243845   10.45203200632134    4.20961614501710
H        -1.80331746867990   10.68481380989725    5.97122265191514
H        -0.07344216177945    8.94128414076170    6.17481709946459
H         2.44997109459436    8.66059137920328    5.03678577929866
H         4.16226573832307    4.89471119105016    5.30634506419415
H         1.95229632071860    4.10833657358281    5.05098124176771
H         5.35333607146695    6.98591571055655    5.39783979430107

