86
CSD_code = KANRAS | q = 0 | S = 0 | Stoichiometry = C44H37ClOP2W | MND = 10
W         0.68888339106007   -0.08867939962203    1.55785025202619
Cl        1.84531936696789    2.05081366737634    2.01726919391442
P         2.19605193996467    0.22659158277600   -0.27677840991463
P         2.69065043167930   -0.83124393671346    2.63955991086028
O         1.19090609662837   -2.05907316560699    0.71916450167870
C         0.29345278671419   -2.62148547038796   -0.05541029007564
C        -0.98191245291320   -2.01079010698953   -0.20092120867686
C        -1.89871167469495   -2.46356983583737   -1.13146786391377
C        -1.59604251212451   -3.57148930491508   -1.90187743124558
C        -0.39491191095274   -4.23195544731407   -1.71143197354109
C         0.56453310831107   -3.79390431394777   -0.80576595934201
C        -1.20231323855131   -0.94223562120775    0.78271628503283
C        -1.10717479621346   -1.37408908576568    2.17368994032271
C        -1.04387542273542   -0.44336058714390    3.20993424459813
C        -0.91750681364516    0.91645708438429    2.88795634292480
C        -1.15475921531218    1.34943293844822    1.52691253148096
C        -1.39383907924704    0.42599105863875    0.50633126031071
C         1.82752168070847   -4.52555566488242   -0.64391725377691
C         2.41143671614749   -5.20370674736118   -1.71488226322709
C         3.60594157224814   -5.88043653621977   -1.56046729936887
C         4.24882650520761   -5.89892909229995   -0.33345233091818
C         3.67411531199279   -5.24371946060066    0.74195808667029
C         2.47643652596109   -4.57121312157850    0.58877123849543
C         3.94518706064859    0.04914163530140    0.32976197817715
C         4.01572763649514   -1.07740043875464    1.35708612494916
C         2.28518567681448    1.79195126441090   -1.20777529362692
C         3.29033680944234    1.99956485953954   -2.14679457773615
C         3.31592104423094    3.16448225676396   -2.89004707558972
C         2.33256991594662    4.12473673722318   -2.71320805883194
C         1.31913113656576    3.91397134597633   -1.79415087749260
C         1.29439696266324    2.74947075107739   -1.04784297050910
C         2.08612858454960   -0.87247209384011   -1.72337740396555
C         0.93149649205219   -0.72145179443550   -2.48731530466058
C         0.73026886484550   -1.48325951112553   -3.61977115810669
C         1.69694064596947   -2.39477442465157   -4.01390077441975
C         2.84754922695163   -2.54829010260333   -3.26184432907346
C         3.03813955528228   -1.80373697766592   -2.10998363714292
C         2.81051044940363   -2.40580580489061    3.54782446402221
C         4.02593423666442   -2.82540197719715    4.07959836314976
C         4.10415652064933   -4.01935222259218    4.77161168557371
C         2.97159053356948   -4.79979543476863    4.94568323622662
C         1.75634167369400   -4.37876476230095    4.43387396783694
C         1.67841384875851   -3.18336110001782    3.74036745885828
C         3.42640095522515    0.24942522743476    3.90407113235673
C         2.65283422197069    0.40841860979933    5.05048130040917
C         3.08505835733973    1.21373759872898    6.08434448169017
C         4.29883488921955    1.87520349377761    5.97897448284535
C         5.06882348592717    1.72698901679778    4.83914820498997
C         4.63794798789895    0.91714155378242    3.80180016370161
H        -2.85325441709824   -1.96419968122249   -1.22925674865704
H        -2.30682500820595   -3.93976803281372   -2.62625838126606
H        -0.20197151140949   -5.13232306414241   -2.27606083839300
H        -1.22695404909190   -2.43475233686549    2.37940424953477
H        -1.04851764950281   -0.76692283938453    4.24521901313275
H        -0.84773457218655    1.66607365375437    3.67035399898776
H        -1.26357206463066    2.41454607468746    1.34203422114842
H        -1.62826508239002    0.75660990883327   -0.49947748266647
H         1.93444657088983   -5.18591103263329   -2.68322791750382
H         4.04272301085126   -6.39545847368161   -2.40502412124420
H         5.18658212796859   -6.42308808564548   -0.21750717747528
H         4.15552367269484   -5.25672691141224    1.71040076109468
H         2.03508652312685   -4.07913023234712    1.43944697071714
H         4.17960682335613    1.01259140959703    0.79808135957254
H         4.63936440510724   -0.11908632402417   -0.49847310152124
H         3.77385594438180   -2.03642629190735    0.88480879560683
H         5.00666585767090   -1.14662785617557    1.81600321505687
H         4.04804740950486    1.24404035294767   -2.30115652253715
H         4.10259731020329    3.32412967377604   -3.61343025241429
H         2.35595073913948    5.03462537634607   -3.29491131380394
H         0.54906800897805    4.65941562398113   -1.65812179965014
H         0.51744838973135    2.58136685874672   -0.31664283581919
H         0.19573833161897    0.01132215743748   -2.18050850486128
H        -0.17388065829934   -1.36638207011613   -4.19885078954179
H         1.55017174006214   -2.98530845056701   -4.90642477542100
H         3.60389219023046   -3.25686190811474   -3.56655442753002
H         3.92822526002302   -1.96377668504799   -1.52032202484376
H         4.90646578382470   -2.20985691309151    3.95837117255224
H         5.05050812593378   -4.34445761292273    5.17948093997903
H         3.03730218988057   -5.73384615516006    5.48398369812521
H         0.87200835299707   -4.98402913711381    4.57215143387449
H         0.74097452623608   -2.84227165760679    3.32649741150350
H         1.70220927229632   -0.10827495211477    5.11052728874380
H         2.47847119256619    1.33339505108879    6.97045155900694
H         4.63940000010733    2.51133375409882    6.78264488247664
H         6.01042678517867    2.25008033987838    4.75293867834559
H         5.24575937826512    0.82413932993867    2.91415227775015

