81
CSD_code = KANROJ | q = 0 | S = 0 | Stoichiometry = C38H30Cl4N4NiO4 | MND = 6
C         0.36032023887077    7.93049364479661    5.01759444429393
C         1.75022285405585    7.73864906243479    5.28532825999700
C         2.53015358151010    8.63591143160454    5.96467575441244
H         3.57925391801077    8.44189481336197    6.12410785084143
C         1.94839271826801    9.80961974803748    6.44233536773219
C         0.61065754168292   10.04575464706921    6.25315027592385
H         0.16581281632833   10.95156626415334    6.63679300860501
C        -0.19676378048784    9.13100155001788    5.56303837521064
C        -1.58703172671099    9.43602576325970    5.42472905693201
H        -1.90635730533573   10.37386700081829    5.89240083960931
C        -3.78002091876928    9.12948203475669    4.72732807789361
C        -4.09041591794085   10.40738474774687    4.25742146895856
H        -3.29407074652296   11.10132160860247    4.02955587495946
C        -5.39854293945347   10.76285466924876    4.01748082754378
H        -5.64725313478488   11.73430374018580    3.62099886107038
C        -6.43535532291579    9.86143426231081    4.26109984157117
C        -6.13350533765271    8.60479051046273    4.77962629720781
H        -6.91284762592313    7.89252199707679    4.99921182025572
C        -4.81926291951835    8.24394846192243    4.99843473283630
H        -4.57974074141347    7.26054881917208    5.37406457665691
C        -8.75854248761289    9.39369203227873    4.07213839412505
H        -9.63221891935605    9.92157684634083    3.69299136229027
H        -8.59154771444743    8.49124675513813    3.47588523896929
H        -8.93274546093237    9.11161951404682    5.11594985095238
C        -0.06099035502430    4.68769153318916    2.48523033137085
H         0.52501977843715    5.10726777699461    3.29042178860336
C         0.34646913118841    3.53395974233156    1.83424862628868
H         1.25800716839423    3.03898555170254    2.13117081221235
C        -0.43509266322149    3.03781298961978    0.80397332959345
H        -0.14966960015746    2.14074853050316    0.27365491426968
C        -1.59221029078168    3.72217952159932    0.46995724057853
H        -2.23307428193933    3.37619787504011   -0.32608742996016
C        -1.91765161966078    4.86857995222398    1.17763718801466
H        -2.81487432853014    5.42342154683967    0.94178549237573
Cl        2.47786387698971    6.29216978445649    4.68642041541620
Cl        2.93476646225914   10.95904491343756    7.27516259711673
N        -2.45954914860655    8.69307731287476    4.84705817232181
N        -1.17030367154365    5.34566689751358    2.16632977991170
Ni       -1.86927933161059    7.09015887463005    3.47715503824975
O        -0.26409481590617    7.05079330934850    4.34280401911850
O        -7.68648682948138   10.29698306042588    3.95211055752343
C        -4.09884908136502    7.93048187343869    1.93666084875066
C        -5.48875691957283    7.73864827038599    1.66895019077614
C        -6.26869187693231    8.63591765033058    0.98961734578705
H        -7.31778703465647    8.44188930230684    0.83016766824217
C        -5.68693281261395    9.80962742493305    0.51195934403012
C        -4.34919828472017   10.04576664105401    0.70114776934029
H        -3.90435939686834   10.95158991138318    0.31752452225619
C        -3.54177470664228    9.13101047753840    1.39125383696121
C        -2.15151509619067    9.43605317171202    1.52960326546932
H        -1.83217977925590   10.37387085350909    1.06188893401886
C         0.04148225314518    9.12949075087661    2.22697047153876
C         0.35187915324550   10.40739109461801    2.69688299069422
H        -0.44446468668421   11.10133030762413    2.92474709082413
C         1.66000713977215   10.76286060537113    2.93681898706073
H         1.90871857294710   11.73430763839624    3.33330569966330
C         2.69681918561988    9.86144318686948    2.69318816818659
C         2.39496810846981    8.60480220094995    2.17465540884463
H         3.17431036033966    7.89253433785329    1.95506690533542
C         1.08072451419138    8.24396089748112    1.95584936767327
H         0.84120143708061    7.26056416463004    1.58021063728063
C         5.02000653615110    9.39370004774873    2.88215331667756
H         5.89368071557856    9.92158336726160    3.26130736975245
H         4.85301151413018    8.49124853720097    3.47839756277506
H         5.19421443278394    9.11163812590782    1.83834029838633
C        -3.67760285863910    4.68775436201343    4.46916048582210
H        -4.26354222948316    5.10725302330013    3.66387046694258
C        -4.08510636141816    3.53410453307893    5.12022505324170
H        -4.99650063341283    3.03890305452350    4.82304920032894
C        -3.30353475596282    3.03794132858867    6.15047199865232
H        -3.58887367956959    2.14077133242670    6.68068121661506
C        -2.14627519213013    3.72205246175693    6.48421179655444
H        -1.50553071511190    3.37622201156552    7.28043767057187
C        -1.82073394389132    4.86830144831437    5.77637738399563
H        -0.92378465215638    5.42360547630912    6.01272805356758
Cl       -6.21639130651365    6.29216228951470    2.26785024325456
Cl       -6.67331182998098   10.95905586089193   -0.32085742224967
N        -1.27899192800373    8.69308833242988    2.10724678900510
N        -2.56818657099636    5.34554812224034    4.78786444403045
O        -3.47443761982430    7.05078697286364    2.61145782407872
O         3.94794987937164   10.29698945321835    3.00218346341806

