99
CSD_code = KANRAT | q = 0 | S = 0 | Stoichiometry = C50H40N2NiO2P4 | MND = 4
Ni       11.11745387194064    4.80132680340879    9.55400284813278
P        11.25290767547994    2.88726016831898   10.68331377214298
P        14.01280072972550    2.23960967924877   11.04125039444138
P        14.85120231839244    4.12272481993497   10.04354453922073
P        12.79468787389083    6.09398174427219   10.31924830889567
O        11.45099316650670    3.43235034547195    7.02872354709324
O         8.42616783435417    5.56420910056710   10.37464234765304
N        12.55356046294319    1.83245084784168   10.58429054607364
N        14.36872556745602    5.53685784033310   10.55825169568073
C        11.40590278822582    4.15587879400687    7.91917055169590
C         9.50774207337360    5.41242603386229   10.02251466730899
C         9.96581244002062    1.74353024881915   10.10633812762009
C         8.67431820171377    1.83477783082585   10.61195951569731
H         8.45595661198966    2.55511855224211   11.38971389377629
C         7.67987466392841    1.00971120907307   10.12169484882617
H         6.67747884902152    1.07919649786947   10.51971564960684
C         7.96570659056058    0.09789597193632    9.11813798435211
H         7.18615846136016   -0.54493188586189    8.73498936319316
C         9.24767118820030    0.01720232012534    8.60010419336720
H         9.46707864752977   -0.68626843408692    7.80906058092091
C        10.24471497466764    0.84149742410797    9.08795192519526
H        11.24587519935919    0.79816033526682    8.68275131031885
C        10.89410199956872    2.90903116526895   12.47753885823322
C        10.56504809052632    4.10048584548341   13.10661124010145
H        10.49232709496554    5.00816201809682   12.51879132196442
C        10.34997647243183    4.12989190477176   14.47268561013676
H        10.09614613478020    5.06185493800645   14.95760875308848
C        10.47093640579712    2.96729737252002   15.21409552391312
H        10.31035297588706    2.98788146476722   16.28251754712667
C        10.79899353189148    1.77411773624654   14.58814673139470
H        10.89077051182944    0.86739720286625   15.16929192609902
C        11.00891723972462    1.74209905156092   13.22339669502978
H        11.26881675556908    0.81851592946245   12.72401721589877
C        15.09008389465862    0.81900721661418   10.74876521848880
C        14.56108399440129   -0.29287216740300   10.10476321752092
H        13.52030528140858   -0.27659265362153    9.81334554703919
C        15.36352630981219   -1.39215831778254    9.86165810054654
H        14.95442942594450   -2.25941267759619    9.36491130346528
C        16.69236546756182   -1.38001057470188   10.25666033294186
H        17.32045197907201   -2.23646216913004   10.06135954096201
C        17.21572401484998   -0.27522982277428   10.91021803759067
H        18.24816672810645   -0.27127679055254   11.22731874645590
C        16.41714860974440    0.82535318589946   11.16294428784101
H        16.81509375375938    1.68160365230309   11.68939181899998
C        14.18716859220901    2.62693478968007   12.81465361515542
C        13.71974368321916    3.85391774806123   13.26845561681587
H        13.34514775764922    4.57840143645206   12.56064416719200
C        13.71706440426571    4.14007605441619   14.62059565702166
H        13.35704789558939    5.09974032135161   14.96076765022555
C        14.16047887354522    3.19206835866996   15.52718909015792
H        14.15354008016302    3.41029112786403   16.58484319232634
C        14.59834819706157    1.95566837115734   15.08014521604007
H        14.92727458732958    1.20953087233264   15.78881677122654
C        14.60935057879589    1.66719187172903   13.72781390327447
H        14.93935352867816    0.69772547867805   13.38081924926272
C        14.57368382933036    3.78039225340824    8.28305218295600
C        14.45110955670917    2.49244644974096    7.77879147603157
H        14.51942709178041    1.64319074372631    8.44396434138109
C        14.22765859051600    2.30921362251501    6.42609546494964
H        14.11758205004732    1.30967222952266    6.03159237427615
C        14.13293471355080    3.40358029903528    5.58093797192884
H        13.94810152245202    3.25398634120586    4.52752355224397
C        14.25970485454743    4.68843418131733    6.08504404604399
H        14.17654711599537    5.54211459505085    5.42871663385389
C        14.47598170736734    4.88014913211598    7.43680128037485
H        14.56263264619332    5.87682562056544    7.84923386388646
C        16.62071938169124    4.01907441837118   10.37304221150566
C        17.48927967595823    3.38106183125171    9.49620733507668
H        17.11199967013201    2.96315642672115    8.57285506784338
C        18.83264449390515    3.28889842392714    9.81319380696334
H        19.51264604513144    2.79794747441461    9.13272880284088
C        19.30534984037079    3.82382642009020   11.00126601852787
H        20.35433597977210    3.74611823323085   11.24614732499659
C        18.43713495648682    4.46025520989408   11.87507950335625
H        18.80891362697206    4.87636817798019   12.79986420432474
C        17.09396907750996    4.55897903863874   11.56309247401605
H        16.39925106367613    5.05033625278007   12.22858754879245
C        13.11565739505408    7.54227379056377    9.25016427915394
C        14.23949045114427    8.33525952561370    9.44567790538412
H        14.93810062632756    8.08100077191418   10.22986837423395
C        14.45883971603582    9.42854024759215    8.62934330989448
H        15.33410408841110   10.04542771450419    8.77726675766839
C        13.55607734777245    9.73851667222038    7.62335157847219
H        13.73023629411401   10.59596901540302    6.98901971482240
C        12.43387832898790    8.95045683764742    7.42992239191483
H        11.73159295768054    9.19123889728791    6.64448619238911
C        12.21475871589065    7.85198130787746    8.24190485168397
H        11.34833450025646    7.21324345322519    8.09934737842909
C        12.56986839876893    7.04696232467333   11.86434019358759
C        13.57888727333546    7.23431983600972   12.79814442775621
H        14.55194084591527    6.79784902407877   12.62745776090983
C        13.33509845186580    7.97337034482601   13.94236658271333
H        14.12322196033761    8.11308811660360   14.66970376337137
C        12.08817172210378    8.53539669664389   14.15779543144772
H        11.90011494140753    9.10829832838503   15.05461213560106
C        11.08207167603163    8.36524439679722   13.21965106063587
H        10.10980725941966    8.80850783602154   13.38141878052509
C        11.32366836190854    7.62370789858355   12.07966748519618
H        10.54539615572172    7.47942339974563   11.33891984329109

