26
CSD_code = KANSUN | q = 0 | S = 0 | Stoichiometry = C9H12Cl2N2Zn | MND = 4
Zn        2.31491022702698    1.95999946438254    1.47313862346212
Cl        1.73542329399483   -0.05509160297245    2.14020643032734
N         2.38396202089609    1.95999889700183   -0.63799546115305
N         4.43051582453932    1.95999939751815    1.16329561959240
C         1.32826975225209    1.95999940517126   -1.44336366165619
H         0.36299724393331    1.95999886929276   -0.95711160254809
C         1.44387457049858    1.96000052862025   -2.82070370517152
H         0.56338049836448    1.96000101917670   -3.44211074975665
C         2.71594216938737    1.96000107663831   -3.37545354349699
H         2.85163939168829    1.96000200489335   -4.44652532445967
C         3.80995290925388    1.96000043540935   -2.53048306683401
H         4.81463081088797    1.96000081116619   -2.92512230659764
C         3.60370606583480    1.95999939471630   -1.15282020209246
C         4.79652766112511    1.95999878222203   -0.22958616325638
H         5.39777782777657    1.07130186749616   -0.46572551697386
C         5.29456811474673    1.96000000964907    2.09269157290574
C         4.84308325149561    1.96000048433915    3.50935586778514
H         3.75617110359762    1.96000048159400    3.57287113456768
H         5.22714524686184    1.07934307494195    4.02183920898608
C         6.78275859450145    1.96000027496054    1.90704362233927
H         7.08990402066255    1.96000028343473    0.86642048218326
H         7.20175597833838    1.08242412673714    2.39646132436660
Cl        1.73542329986710    3.97509150425974    2.14020363258624
H         5.22714524848310    2.84065821660613    4.02183866158159
H         7.20175566151720    2.83757660904964    2.39646123943231
H         5.39777921246868    2.84869458369524   -0.46572611611925

