19
CSD_code = KANSOH | q = 0 | S = 0 | Stoichiometry = C6H8Br2N2Zn | MND = 4
Br        1.96022174987844    2.98053816097633    0.77454580736757
Br       -0.67126390649202   -0.05404598663693    2.85713491905092
Zn        1.15510942987499    1.11278869281659    1.96955660486276
N         2.46960499979448   -0.47064774880732    1.28632758894328
N         2.76778207156821    1.02220805247066    3.54203438068827
H         2.92796527233224    1.86633708648593    4.08681789198445
H         2.57336660794763    0.27269928297261    4.20407714120531
C         3.70267617347827   -0.39530993775207    1.77976780378930
C         4.70211567560373   -1.27415374950120    1.38212533080640
H         5.69398289449156   -1.18502595469290    1.79683544033592
C         4.40327508790219   -2.25471337260866    0.45217115219586
H         5.16284631239107   -2.94879335056886    0.12630526894698
C         3.11102709101212   -2.33343150397363   -0.04465425622903
H         2.83067884757244   -3.08653903102482   -0.76256595993974
C         2.17706665754327   -1.41779110029214    0.40347052019400
H         1.15453151474986   -1.44038214266812    0.05241151443550
C         3.97259256123817    0.70423413618686    2.77135407731191
H         4.81846496731185    0.42361082850927    3.41135985328245
H         4.25365599180143    1.60051763810888    2.20462492076817

