117
CSD_code = KANTIF | q = 0 | S = 0 | Stoichiometry = C49H59I2LaN4P2 | MND = 7
La       12.28035036646507    5.24704501774934   12.90361545730490
I        10.10794858056709    7.40032910386629   12.57966617243103
I        13.44344324682982    2.54319712133482   13.80123864962003
P        13.59180557288582    6.06849673764622    9.96333921378486
P        14.87402323944809    7.11655617640953   12.49351187639310
N        13.03578639021669    4.68929311347929   10.57275411115574
N        14.22332680061493    6.44145415908058   13.80364749562349
N         9.78195558990544    3.54745520532865   13.21071844972947
N        11.05730999657261    5.10010265999253   15.65261105566857
C        13.60332974974227    7.26234379338924   11.26100893152166
H        13.71050652111298    8.24051181114045   10.77404370704535
C        12.55342380331829    6.80234614850173    8.64548706764197
C        11.67532619595628    7.85316268631540    8.87889085362325
H        11.60305952460002    8.29756127103100    9.86059677540796
C        10.87593312282162    8.32660924821448    7.85366392932475
H        10.19488369434670    9.14302575639533    8.04224173474937
C        10.94238546674403    7.75086035434615    6.59573029456156
H        10.31558810375743    8.12096370052624    5.79772706038940
C        11.80842561563469    6.69403415996172    6.36182226828448
H        11.85579622504069    6.23649526756924    5.38420808990223
C        12.61035213672916    6.22049259627708    7.38306600251271
H        13.28174145822653    5.38964492591328    7.20853919040807
C        15.14721086051046    5.96550114826834    8.97829856198082
C        15.79165769790317    7.16387409029149    8.68940989045602
H        15.39112394986799    8.09157128164483    9.07651756088107
C        16.93046848223811    7.17693762665713    7.90936057772712
H        17.42418825740963    8.11315349835169    7.69153806368950
C        17.43938246524339    5.98909417417043    7.40897816531014
H        18.33480846470061    5.99642250956866    6.80501360580756
C        16.78943394242287    4.79673965081141    7.67253624710028
H        17.17007872379868    3.87051278392821    7.26688856237072
C        15.64153951754910    4.78460387018433    8.44600803512227
H        15.11509049600630    3.86153579053719    8.61800239495723
C        15.62513454105729    8.72518416193309   12.88573226200341
C        15.22602992265468    9.94339649025099   12.35566690252999
H        14.43997923191232    9.99222378242432   11.61549562628409
C        15.83123050467614   11.11293549637944   12.78152829870028
H        15.52067794691580   12.05898486033487   12.36239586809126
C        16.82393512250037   11.07358697579618   13.74603228688333
H        17.28671569427812   11.98996588788564   14.08123387250151
C        17.22189982207229    9.85917978311283   14.28159970334718
H        17.99359822561395    9.82426607538929   15.03619113803954
C        16.62748097186666    8.68922471540737   13.85038942121109
H        16.93800839862244    7.73679778878204   14.25790998408947
C        16.32569736299692    6.16535135567045   11.91544750048752
C        17.37370547312332    6.77774586209395   11.23685422094021
H        17.36494160351066    7.84938833073929   11.08950949434322
C        18.42538232274683    6.01682022002417   10.76427525712970
H        19.23968528230099    6.49571425810244   10.24021406111009
C        18.43728947240178    4.64458857263993   10.96009573156209
H        19.26165442276012    4.05514939492081   10.58704564695347
C        17.39917591895680    4.03168975075936   11.64031031838178
H        17.40896531415497    2.96465246999618   11.80658991181496
C        16.34451332199620    4.79197290991691   12.11426612362756
H        15.53890601782608    4.33225113317432   12.67033301538138
C        12.54067988052678    3.59566078348929    9.80518361638233
C        11.25810536602867    3.64191794268693    9.23357874742609
C        10.77818980124335    2.55110574025304    8.52099132078247
H         9.79145587606189    2.62004532885748    8.08274340478969
C        11.51512524566053    1.39046941461457    8.36606801178782
C        12.75737212784169    1.33616095704635    8.97590586552651
H        13.34785147732373    0.43363370758521    8.90003008394982
C        13.27713343024982    2.40374555792979    9.69165644048486
C        10.33308911921167    4.81528966476227    9.38334104890054
H        10.25396200521645    5.36939014873503    8.44862036177943
H        10.67215755535832    5.50268939699121   10.15764841658142
H         9.33028700441001    4.46615642055988    9.63203850770699
C        10.99447191725387    0.22894687534541    7.57532829624789
H        11.50689512703156    0.16845790908331    6.61470305085014
H         9.92865050321259    0.33362246260587    7.38731048664090
H        11.16930554749483   -0.70518794219970    8.10586242720288
C        14.61612554323423    2.20914264346955   10.33995011222483
H        14.53505613745453    1.46012269895769   11.12658411258328
H        14.98241446612770    3.13377461952434   10.77464235695956
H        15.34572439424691    1.84141581767768    9.61781467815500
C        14.44690711459978    6.96731827709158   15.10206497085470
C        15.24686949951923    6.27205435275035   16.02153696699072
C        15.38515262001155    6.75707256626954   17.31282929536060
H        15.99961886716947    6.20563426352235   18.01115347057562
C        14.77268359802724    7.93021113008780   17.72397631164414
C        14.01491294931876    8.62608490740140   16.79616713934385
H        13.53994611773389    9.55380384869267   17.08467151935026
C        13.83952295294447    8.16928793010201   15.49773105917026
C        15.98324214719653    5.03211419624416   15.61798274660586
H        16.53950515948948    5.20274361861351   14.69597725672318
H        15.29721739834497    4.20500830131634   15.44495984313045
H        16.68227503466363    4.73367533994259   16.39552682112468
C        14.94494528701494    8.45381232329988   19.11796819177434
H        15.62574358566349    9.30555090058370   19.11783197326727
H        15.35517418714065    7.68844572538812   19.77221478706942
H        13.99197840034662    8.79004999074535   19.52277117067913
C        12.98991890652120    8.98888694604848   14.57246554251042
H        12.99200693993934    8.58785237605329   13.55888333149898
H        13.36135856012466   10.01277260558226   14.53547049314774
H        11.95970356108448    9.02496599175108   14.92733704650543
C         9.95573517158679    2.29806790594979   12.46058404038119
H        10.83585517035439    1.75868774460530   12.80007019568728
H        10.07489760975638    2.51888835562469   11.39991266704371
H         9.08584702240175    1.63802941708077   12.58277374102181
C         8.52152836116645    4.14041040989558   12.75828748028776
H         8.59063564929960    4.37713664806587   11.69900655427508
H         8.30138216726893    5.05856369140239   13.29396794427153
H         7.68320200001039    3.44498593336721   12.90596529158592
C         9.68630578533968    3.22994483648912   14.64577630827271
H        10.50280071508671    2.55231031953601   14.90167414865940
H         8.74243257438976    2.69749454534575   14.84811979103612
C         9.73512349438663    4.45679242618667   15.56053341914905
H         9.02429758190113    5.20273264532191   15.19989505634400
H         9.40117866586509    4.14480053170982   16.56284844276390
C        10.87494683197849    6.44126592481280   16.21738297487956
H        10.26802751200688    7.05623213008660   15.55632798602684
H        11.84798614356394    6.91125015579690   16.35211673996090
H        10.37779577321214    6.39397550969639   17.19640398570785
C        11.90532856242164    4.35760354929748   16.59046010192662
H        12.89840856270420    4.80629448588178   16.61593002181192
H        11.99750793714527    3.31668152161545   16.29457850672589
H        11.48625014197850    4.38694785817663   17.60606661996758

