51
CSD_code = KANWOO | q = 0 | S = 0 | Stoichiometry = C24H24Cl2Zr | MND = 12
Zr        5.28900928992608    9.69431460570448    8.87585374442206
Cl        3.95931973999289    8.01100977074887    9.82004663692515
C         7.42548242850660    9.98199733464685   10.14816823873202
C         6.43365354292489    9.51628389403959   11.03981869964087
H         6.48835314118890    8.60184219834298   11.61999084908726
C         5.44161787010188   10.54372470243630   11.17660877031811
C         5.84116272657162   11.64691905069700   10.32673291895439
C         7.03764658696793   11.24893450629882    9.64511935094078
H         7.66700520117784   11.88293413377692    9.03165428342888
C         5.12535620896298   12.86662617792983   10.37347607653672
C         4.00534537244039   12.91993868425784   11.17233753639831
H         3.44403719066414   13.84181078340757   11.23168505443280
C         3.58477086437382   11.82875740782213   11.94858180589301
H         2.70484840061999   11.94401289725324   12.56483810329779
C         4.28700557812100   10.64540085786572   11.99114559856428
C         5.58067695297723   14.06287987405714    9.58876702396992
H         6.67065425406300   14.07349750985495    9.52628944136127
H         5.25915237311799   14.97428943474537   10.09660329212502
C         8.73234435617887    9.30479535434053    9.85757405563706
H         9.49976675287811    9.68546884079375   10.53539289844150
H         9.05261842085215    9.49956202220403    8.83370906405070
H         8.65377696905235    8.22791890606637   10.00066037775123
C         3.90138549273448    9.52100561727094   12.90320753583014
H         3.00912877058912    9.77382552968918   13.46988185220349
H         4.71099664730180    9.31010787776058   13.60171436146799
H         3.70906485062955    8.61684814359347   12.32600524185944
C         3.15223872956348    9.98196958561209    7.60365571808842
C         4.14410563983293    9.51623852176135    6.71205848052682
H         4.08940613005182    8.60180518992095    6.13187373345765
C         5.13611287557272   10.54370433607048    6.57526225838752
C         4.73654492496642   11.64689785791089    7.42512921583429
C         3.54008447230502   11.24888348579959    8.10676642484311
H         2.91070303694838   11.88287864570858    8.72021923052179
C         5.45232080085730   12.86662107632332    7.37838859920501
C         6.57234721393251   12.91994011023263    6.57954977984750
H         7.13366466986865   13.84180810772097    6.52023415823459
C         6.99294379369996   11.82876176645698    5.80331348467175
H         7.87289383145148   11.94401244724070    5.18709798130678
C         6.29071763258062   10.64539988415667    5.76072894074476
C         4.99698414146400   14.06286786644458    8.16310401884630
H         3.90700660945523   14.07347471339694    8.22558752549002
H         5.31849280106520   14.97428097088623    7.65526515287109
C         1.84533958887942    9.30479378573018    7.89419025893203
H         1.07795009248765    9.68547908289593    7.21633979244165
H         1.52499904587347    9.49956376265675    8.91803783207475
H         1.92388024388405    8.22791608250352    7.75109093729660
C         6.67637372425466    9.52098867895231    4.84871323410673
H         7.56862076852710    9.77382751952639    4.28202976656523
H         5.86675769077578    9.31003486252447    4.15022727934563
H         6.86872858999042    8.61686444116060    5.42596122184460
Cl        6.61740296879690    8.01178110280279    7.93211216224438

