39
CSD_code = KANXUT | q = 0 | S = 0 | Stoichiometry = C16H18Cl2ORuS | MND = 9
Ru        1.80610470241900    2.19628138088650    1.59807241958119
Cl        3.25051543371224    2.74669957901990    3.34089732342718
Cl        0.90545790030631    0.52605329556421    2.94888005444582
S         3.39166745623763    0.71259034377832    1.07163649021868
O         3.11724521538894    0.17890962456776   -0.24877088180632
C         5.05421848090076    1.44797863724687    0.99346203160238
H         5.75049175377159    0.68491284504928    0.66678546081370
H         5.29241954705732    1.82421520377886    1.98182771015177
H         5.02465828551399    2.26123322212156    0.27605616942085
C         3.74835150143576   -0.65463754999470    2.19796438799109
H         2.85186237249770   -1.26221688234955    2.26681536623351
H         3.97367267349401   -0.21539500654133    3.16446296773778
H         4.57939011973925   -1.22496342531569    1.80016739480180
C         0.94024537629282    4.34510460681092    1.56037483082350
C        -0.14062949888158    3.45723644389954    1.48079499896124
H        -0.97504157159600    3.55410849989590    2.16824480650794
C        -0.17949678738525    2.46316489816483    0.46096680812219
H        -1.03818861807767    1.80668271409992    0.39115067406145
C         0.84263664708169    2.39147730191744   -0.48639311094252
H         0.79397193354951    1.67678598001458   -1.29749113117642
C         1.94986176370144    3.27456437987523   -0.39561469509198
H         2.71848216215609    3.24019438190169   -1.16014702645625
C         2.01454107438472    4.23944400678966    0.62091045692832
C         3.12798392461477    5.24043596681144    0.74162085937100
H         3.74199995114340    4.96140875092943    1.60972387287421
H         3.76344681633964    5.23456888148559   -0.14555818959231
C         2.54505592012240    6.60612176161519    0.98814330779047
C         3.00722278726944    7.73880889250051    0.33925830373051
H         3.81627511015211    7.65698983685168   -0.37227978892489
C         2.43880770678981    8.97316503461830    0.60526470397612
H         2.80599075456830    9.85391169630609    0.10038964974592
C         1.40008895183403    9.07586250291524    1.51391089350764
H         0.95452605963699   10.03723588504651    1.72035669799757
C         0.92714453769796    7.94458188410151    2.15740348314930
H         0.11411094850268    8.02329226011391    2.86436116672260
C         1.49849914715535    6.70908545923785    1.90223866161580
C         1.02429311352761    5.44936473618467    2.57449337989545
H         1.76272661464462    5.15702361217451    3.33462446268169
H         0.06638973235774    5.59871835797825    3.07489502904738

