51
CSD_code = KANYUW | q = 1 | S = 0 | Stoichiometry = C17H30ClN2Ru(1+) | MND = 9
Ru        1.71476264336410    2.83588816068560    7.69209385048288
Cl        3.91211634939846    2.71346183623229    8.46470520240035
N         2.02939335665813    0.73277122147684    7.18058393138093
N         2.45841273326644    3.05021167638669    5.69220719843774
C         2.85369278585703    0.67660449258802    5.96190217632802
H         2.79842075458503   -0.31452097747816    5.49657987582766
H         3.88752504779684    0.87288424346134    6.26408596510082
C        -0.58010230162256    2.75195504346937    8.00524227077968
C         2.58061142889300   -0.19807748664729    8.18361833390561
H         2.60172409370615   -1.20805313692898    7.75657845912197
H         3.60448383926374    0.11657141433368    8.39743803636523
C         3.79583871186087    3.59898994784308    5.40032083449810
H         3.82597936886785    4.66561116801616    5.61835695446878
H         4.53046728783563    3.09078118370554    6.02754430590828
C         0.66097475726395    4.83314879483512    7.61700639161317
C         2.40983228439521    1.75450996928305    4.97466790771001
H         1.37899500315722    1.55700703276277    4.65701143610320
C         0.94525458867596    3.64531338502060    9.70996829640374
C        -1.64585208457019    1.77311859355227    7.61654490048908
H        -1.74440120613750    1.69570324666000    6.53547547629034
H        -2.60361000776019    2.11335531839879    8.01353661722607
H        -1.45377112203534    0.78559113954857    8.03182536316131
C         0.03026774512676    2.67755524696052    9.28955148422980
C         2.16620085726009    5.85591981903687    9.39888161580224
H         2.68980124808625    5.48142776850206   10.28457297852110
C         1.28275150941687    4.75124037472636    8.87527374532714
C         1.78234132419215   -0.19600089041625    9.47367412764521
H         2.18913829037564   -0.94352784699322   10.14819504287993
H         0.73523869299564   -0.43409655716578    9.29518273217883
H         1.86845068968232    0.77479506563880    9.95811767681622
C         3.22127392456168    6.29299985407125    8.38217461580956
H         3.89871816705360    7.00403863317089    8.84598096568706
H         2.77074935911592    6.77518386334775    7.51757259036986
H         3.80228884676140    5.43174827085209    8.05593281292869
C        -0.25803091247739    3.84333278083565    7.18132506965957
C         3.37369261688780    1.88266075375807    3.77554116025833
H         4.13577830726229    1.10749041420270    3.82489154310002
H         2.85108516505147    1.77762906444660    2.82765890229886
C         4.00463000473527    3.27369582985621    3.92371863561969
H         5.05527041941579    3.28078168329534    3.64939023426377
H         3.48530606242357    4.00071482152156    3.29816320222170
C         1.27993299985106    7.03451962031709    9.81905058479620
H         1.89576938145222    7.81883926280109   10.24948783736398
H         0.54859854987076    6.72436545515476   10.56224650212284
H         0.74995271248588    7.44476123678589    8.96204301150011
H        -0.79041053897592    3.98052946230916    6.24540173503592
H         1.35434435075042    3.60015815321984   10.71391107098611
H        -0.29102473794949    1.90483529536134    9.97853207523641
H         0.82221569366888    5.70885072818936    6.99779514328992
H         1.08862432756062    0.39485611967748    6.94886311103240
H         1.79869663064413    3.67996944938103    5.22707600901957

