45
CSD_code = KANZAD | q = 1 | S = 0 | Stoichiometry = C15H26ClN2Ru(1+) | MND = 9
C         3.93654707812181    7.24429175441398    6.77723723208651
C         2.76140804804481    7.29402093409623    5.99789112146148
H         2.77558597060726    7.79883214114508    5.03772937122775
C         1.59847893858503    6.59265052257674    6.40039425444688
H         0.73243977629777    6.59806060786396    5.74999269131713
C         1.56730310796854    5.86440398516483    7.60095753721087
C         2.75119591270918    5.83855728370375    8.39584325184764
H         2.77280968904771    5.21960886930017    9.28744164088543
C         3.91957641013869    6.49551104174804    7.98639492525230
H         4.83519848498836    6.37608276531689    8.55471081184923
C         5.20690832711488    7.86472319931937    6.28070041788097
H         5.89423379271795    8.08933021761310    7.09414435069190
H         5.00994290613379    8.77140497042077    5.71186154863047
H         5.70545047462992    7.15955394065575    5.61344815994071
C         0.36477764318483    5.04673464999604    8.00596571814899
C         0.41789426438590    3.69921185998706    7.27550630685054
H        -0.43004831332364    3.08807188095512    7.57120955814184
H         1.33222086093428    3.16179699248367    7.51760024417419
H         0.37806593725952    3.84666801936591    6.19877555739577
C        -0.95394793034783    5.76895270281152    7.72007145676739
H        -1.76263613701551    5.29062915754657    8.26525219722208
H        -1.20047879881207    5.73076375858843    6.66249193337578
H        -0.90116792261837    6.81524259361232    8.02222661169327
C         3.18702789875141   11.00676307107909    8.10235762995581
H         2.13097866786069   11.23702629535257    7.94788830767289
H         3.68769139503083   10.96652631278690    7.13555916620550
C         3.82208786085014   11.98699226592098    9.08338496837431
H         4.90997075506595   11.92018003381002    9.03772528019841
H         3.53511745957485   13.01459793272645    8.88178438473437
C         3.30400148843870   11.49327420631929   10.43900054552741
H         2.39833752017591   12.02912456166040   10.71670137070281
H         4.03618451060274   11.63748242121515   11.22963612471972
C         2.98482461298016    9.99946155268738   10.22001826512627
H         3.59951485110989    9.34981528822748   10.85314957264228
C         1.50826646624515    9.67087842788269   10.45013175244340
H         1.24649205179316    9.79703930769978   11.50566465069874
H         0.89022758739274   10.33417265771239    9.83637972653108
Cl        0.46817334956923    9.41941123459989    7.40458172362804
N         3.29123819158527    9.70825239400327    8.79362261766348
N         1.26269755989347    8.29222648666828    9.99056288708564
H         0.25299968213942    8.16260184701076    9.88175169327010
H         1.58861078086175    7.62545986042766   10.69535703819776
Ru        2.19995499568037    8.00601261286909    8.06858421059002
H         0.43059062331119    4.85337461485127    9.08382504319920
H         4.27945317035106    9.44792276581604    8.74628614233166

