33
CSD_code = KAPBOU | q = 0 | S = 0 | Stoichiometry = C11H14BrCl3N2OZn | MND = 4
Zn        0.96607650206341   10.22853486846576   -0.69279253024554
Br        0.01990364620091    5.77432604977923   -0.97041392235089
Cl        5.10586514108704    5.04514084789814    1.07604192095798
Cl       -0.63148892724768   11.90965639503092   -0.54386350141864
Cl        2.33329730701070   10.21469292574873   -2.35367565533396
N         1.99164469484342   10.55809920886314    1.06968382925274
N        -0.93993836086238   12.16514575406870    2.30568949433739
H        -0.74271845460644   12.12557339301156    1.19045652780644
H        -0.79214904062918   13.12536422928095    2.61947902606030
O         0.53584594849057    8.49508834529174   -0.05229922659472
C         2.74614196084793    8.28489153753118    0.86450145879514
C         1.57687619945516    7.79712167059044    0.20324331426139
C         1.58522348941149    6.41544009660190   -0.13284402094469
C         2.63847239737499    5.57907073179070    0.11473971686745
H         2.59900690553146    4.54043875954588   -0.17479449088222
C         3.77117920113996    6.09632887508930    0.75215223123400
C         3.82094567086563    7.41345116028171    1.12611899708979
H         4.69900802102735    7.80091430578062    1.62057430965728
C         2.84907042181315    9.63110045682837    1.31418321260653
H         3.71843933823478    9.85941136295462    1.94221181213343
C         2.12494568672206   11.82930129737754    1.73977174691350
H         1.68390949145574   12.59510573590902    1.09927676642043
H         3.17910767366747   12.07867810438647    1.91768536456512
C         1.39899336388262   11.78677725078598    3.09582332208898
H         1.95461376773969   11.12533518790789    3.76335792375678
H         1.40679804666966   12.78701902875133    3.53420843781870
C        -0.02842964926081   11.25324341251384    3.01706531479591
H        -0.03327572354442   10.29890582798845    2.48650934138894
H        -0.40641355978709   11.09502951376616    4.03207617867090
C        -2.35097596545824   11.79252857215769    2.44604265390941
H        -2.48914202936950   10.78984334266124    2.04888484781233
H        -2.96313696150694   12.47609301035111    1.86429747173394
H        -2.66459620326102   11.81424874101318    3.48960812683609

