64
CSD_code = KAPCIQ | q = 0 | S = 0 | Stoichiometry = C24H32CoN4O2P | MND = 5
Co        2.89287760358457    1.27329261409932    8.30729183364049
P         5.11614099616280    1.18060736953384    8.81806387581076
O         2.69650204939439   -1.57041923799933    8.18990312122707
O         3.62253267886770   -0.37749402309706    6.19789179338063
N         2.31087073458981   -0.40680551413793    8.78111326704274
N         1.91028957538762    1.76751754883249    9.83770587120239
N         2.88322757435096    3.04409568092523    7.58997593652722
N         3.31458958877302    0.82539984582159    6.57719159123429
C         1.15691495311509   -1.81221146805007   10.45765357535746
H         1.58422472346785   -2.61793415732930    9.86679492382527
H         0.07090289808154   -1.90050043146025   10.43227067066112
H         1.49066435943998   -1.91417434221348   11.48953205628659
C         1.59582297603922   -0.50100673783778    9.88140687143635
C         1.32575463428880    0.76363134439331   10.45895793886977
C         0.46845441652640    0.91983277461559   11.67888788158339
H         1.06528377271936    1.23719127948433   12.53631280542314
H        -0.01511199202597   -0.01887056803113   11.92751264875924
H        -0.29953275552560    1.67414249964678   11.50942804527681
C         1.74582860296056    3.09979334543643   10.36540731914876
H         0.74746209499723    3.47973433409232   10.10517861807863
H         1.82510701865835    3.09035038972149   11.46122475988795
C         2.80725376293208    4.04958919803683    9.82135548247848
H         3.79091416864011    3.62640153123192   10.03757935175128
H         2.72144896850589    5.01132573695156   10.33173937643605
C         2.68719068088975    4.27205467271126    8.31716445825607
H         3.43407204191379    5.01963570261871    8.01687319076058
H         1.69104480582359    4.67906972497037    8.08981412428534
C         3.17945725361263    3.09096122831580    6.31595828762768
C         3.29692388833084    4.36389535921936    5.53383851061685
H         2.44011922887752    5.00991206058806    5.72097778895924
H         3.35232828338442    4.15470278060991    4.47092450234820
H         4.20049229171868    4.90189834354348    5.82601479702345
C         3.43118190235073    1.82787813639671    5.72733252486531
C         3.82706845199144    1.61501875392025    4.29719161673928
H         4.03381267298642    0.55613859326800    4.15617754137680
H         4.71869709632869    2.18892091007642    4.04827716122763
H         3.02146830038521    1.90511561642314    3.62252967523427
C         5.84976673372200    1.55320272729895   10.45276205574972
C         7.18646523320382    1.89826563375328   10.61608960021681
H         7.83002486762509    1.98349804061477    9.75146591667146
C         7.68955641618104    2.13952935769556   11.88152068728434
H         8.72804034324818    2.41203017829969   12.00362488611781
C         6.86771397115480    2.03125276803592   12.99201722590908
H         7.26483157811111    2.22328121301456   13.97802015299470
C         5.53826127577740    1.67555599905172   12.83621942030587
H         4.89783507293293    1.58588624174915   13.70203779161864
C         5.03249602958326    1.43902861633806   11.57073850821478
H         3.99595149006561    1.16383293322406   11.43071524877309
C         6.10034158586628    2.24350324400168    7.71863643605599
C         6.52998906926294    1.78558557740121    6.47738643038082
H         6.36861026371188    0.75598472783184    6.19665183313911
C         7.15301686522122    2.64741576614336    5.59233130647579
H         7.49042450183289    2.28015597127953    4.63349077687504
C         7.34071510100055    3.97760271250972    5.92750187647286
H         7.82339498880048    4.64989022419607    5.23308109059722
C         6.90172825828943    4.44526167176820    7.15643217971207
H         7.04217175563702    5.48416307892617    7.42084115611017
C         6.27975345007868    3.58663249250405    8.04201190056816
H         5.93379859560855    3.95416757981682    8.99884494297212
C         5.86573946204552   -0.47272084824406    8.54822966248374
H         6.95379404266660   -0.41655066313613    8.56311029311017
H         5.51202480051868   -0.86992890096059    7.59784399665293
H         5.51632445953977   -1.13072218766567    9.34338973698709
H         3.10614948574663   -1.25229505078766    7.28305109285143

