55
CSD_code = KAPDIQ | q = 0 | S = 0 | Stoichiometry = C20H14N8O12Zn | MND = 4
Zn        9.74333030704138    4.85761686380293    8.64766980202500
C        10.10156872999723    2.98950748445803    7.23918959676303
C        10.29974657174495    1.89968871628336    6.21824403215325
C        11.58158727296824    1.55754928582138    5.80871433145659
H        12.43435878777621    2.07199189224795    6.22671176250497
C        11.75427602836325    0.55644278829008    4.86198007602017
C        10.67049452350403   -0.10940943002080    4.30864547469548
H        10.81285272770442   -0.88570887897584    3.56993534837967
C         9.39808931805986    0.24830233547647    4.73026312516129
C         9.20060808093713    1.24368185172632    5.67809442391095
H         8.20471298300440    1.51470396925810    5.99749875289891
C         8.13957781855500    6.34302796084340    7.76573998263649
C         7.03412538840229    7.19042012222061    7.19479718970442
C         7.09340962631699    7.61327779637437    5.87315252793204
H         7.93699224541019    7.33494847243392    5.25837321748269
C         6.06234544796299    8.38698070704898    5.35670234330090
C         4.96920202353665    8.74711741693742    6.13121217632642
H         4.17036746284841    9.34776035547337    5.71930079237154
C         4.93083234058448    8.31642130791318    7.44933113341963
C         5.94976464441214    7.54212304758391    7.98807752798982
H         5.90565493439721    7.20959471642619    9.01476138983560
C        10.47184910074007    2.86494719019741   10.77069971190528
H        11.37212072122860    2.58381570371328   10.26246592473244
C         8.83283558980579    2.88882300667588   12.21339486265843
H         8.24416860932457    2.58910756142340   13.05499350940902
C         8.66326182319392    3.88548036312061   11.30071649697369
H         7.88495149778745    4.61348615335018   11.20558204454287
C        12.18269649224816    6.45581573569775    8.29573277916545
H        12.53556970892332    5.73047129736394    7.59162335558456
C        12.00467900492769    8.27987927568822    9.48282467448690
H        12.24108364531861    9.25882603616941    9.84440107250712
C        11.00500820533024    7.41350922687508    9.80812930585378
H        10.20753717347508    7.52161815075942   10.51407005009509
N        13.09664954584301    0.19449497754955    4.44467316324530
N         8.24986860570187   -0.44248816313987    4.16705752384862
N         6.12803914562812    8.83694236470971    3.97714929810158
N         3.80163879503177    8.69018422158971    8.28246855558589
N         9.69363906511008    3.85666809973345   10.41386123104965
N         9.98790582949370    2.25040274684951   11.86266080512756
N        11.13389507652334    6.28331100481188    9.06225059603556
N        12.74478136211515    7.65312222003952    8.52195565867464
O         8.94874815267502    3.22718629857611    7.64044123939745
O        11.10589747307721    3.60229560975891    7.65781560074760
O        14.01679132287322    0.77805607905598    4.97021837141257
O        13.20527914692764   -0.66779441800122    3.60492511286245
O         8.46812927045092   -1.28960122935464    3.33269835524207
O         7.15744547013307   -0.12655857039897    4.57483340710248
O         9.10213512058777    6.04239857617018    7.03715525050659
O         8.05671200244810    5.98607034155207    8.95937716431342
O         7.12247247368092    8.55786860832854    3.34919436386773
O         5.18657799456356    9.46550712218113    3.55303327166956
O         2.92636886905993    9.34765979233391    7.76978725947530
O         3.81640541461457    8.32314900763879    9.43434131820937
H        10.39240796681004    1.45714261281571   12.33439375205615
H        13.55445306085218    8.03196421457957    8.05687990656436

