38
CSD_code = KAPHUE | q = 0 | S = 0 | Stoichiometry = C18H13MoNO5 | MND = 9
Mo       -1.59124681813028    2.79911911616854    8.85682063414188
C        -0.92986126948069    1.70189575415443   10.77861398691315
H        -1.12387861229778    0.67985865059957   11.08333174282605
C        -1.66033048341200    2.83901722844755   11.18899859030217
H        -2.50727013005032    2.83076434601207   11.86513163434790
C        -0.94772864836500    3.98680496581338   10.77704873512188
H        -1.16526496239191    5.00640067954528   11.07455907601797
C         0.21705811712561    3.56330360709234   10.09670032983412
H         1.03918830804999    4.20497837106946    9.80147113917806
C         0.23565424347046    2.15151907199172   10.10206431437713
H         1.06993834175781    1.52625551550488    9.80685982019854
C        -0.96028838212982    3.25348156334649    7.08153040240673
O        -0.55735639790612    3.49014988365269    6.03518299521820
C        -3.44941630820321    2.41848499558684    8.45039932641500
O        -4.53321538601434    2.12358726615094    8.21919894057343
C        -1.70353141151280    1.22328908558295    7.72970568933091
O        -1.79711850053437    0.32497982401515    7.01930455744549
C        -2.49286399482280    4.83501511837480    8.36275250117474
H        -1.68705085299903    5.54409629707589    8.57818715707928
H        -2.78626053542547    5.00557987050439    7.32347564592660
C        -3.68624402392465    5.20133396483229    9.23826172503059
H        -4.61324785374990    4.78743597643273    8.83550171443648
H        -3.55518960918502    4.87204574910113   10.27309643258190
N        -3.85536108129772    6.64535897130528    9.27919457671966
C        -4.72786147133944    7.35250787095024    8.46015212487820
O        -5.47747832229774    6.85871069949073    7.65959161506730
C        -4.52297853647161    8.78004372513866    8.81303557638002
C        -5.12230801175403    9.92192604383635    8.32573854145672
H        -5.87688969775700    9.86413179411291    7.55702850563969
C        -4.71773115597645   11.14210436706879    8.85992795585017
H        -5.16755228874515   12.05444038580722    8.49790274936479
C        -3.74774332703303   11.20641095905003    9.84788884995099
H        -3.45474054779066   12.16778632425696   10.24247617477426
C        -3.14420196631710   10.05304336268336   10.34063834916058
H        -2.38921214213751   10.09615947150915   11.11019700486801
C        -3.54481308646435    8.84502900880766    9.80997274887922
C        -3.10724023433988    7.46087827317148   10.10858951660197
O        -2.28336296014883    7.06837184175582   10.90036861952688

