58
CSD_code = KAPJAP | q = 0 | S = 0 | Stoichiometry = C24H25MnN2O6 | MND = 5
Mn       -2.07088666427365    1.57953306110607   10.00297801047068
O        -2.72236526748163    0.82076211812469    8.56758141814409
O        -3.31379561306447    1.14081554943660   11.16013214607165
O        -2.66371395403277    3.40473178521519    9.43174405214594
O        -3.84021287699613    4.90900477788707    8.33672742460563
O        -6.41079223455559    0.57086129375953    7.40439989078374
O        -6.46916997375519    1.62100558414861    5.43682923690177
H        -7.07835881778120    0.90075733226422    5.21210990919286
N        -0.31705574524568    1.68075345112075    9.23815720162773
N        -1.14007788687694    2.47411736272284   11.48811368337047
C        -2.20907804193550    0.16597815370455    7.58994540523808
C        -3.01002274597780   -0.62530540977316    6.73358603494432
H        -4.05915700406484   -0.71416372970220    6.97245885128998
C        -2.45791743043174   -1.26271735739043    5.65542646818729
H        -3.07992670203081   -1.87200178445595    5.01642155209467
C        -1.09403051246777   -1.12872359680103    5.36341254276900
H        -0.67986115597269   -1.63035036729614    4.50235626767783
C        -0.29365849706609   -0.36415548474160    6.16985235307646
H         0.75990983407060   -0.25970575649322    5.95018565737319
C        -0.81126535841794    0.28411786435775    7.30759935818395
C         0.02774806076173    1.08062258004182    8.12900996511308
H         1.04305069087988    1.18977335409144    7.75782575299529
C         0.66072970341720    2.57948409613761    9.87165137240271
C         0.41010213621026    3.97663772705765    9.28155781962639
H        -0.60709276184625    4.29620515447852    9.50266088890163
H         0.51753693527736    3.92927362346848    8.19987521498251
H         1.12224443115532    4.69858078136949    9.66840045798836
C         2.12426838257619    2.18446935072616    9.62155771774210
H         2.76949142433088    2.68304103142217   10.33859678007236
H         2.44316147166604    2.50312909418862    8.63231195599207
H         2.27124421650882    1.11135861563757    9.71298905418136
C         0.32321538876714    2.54555341887790   11.39999743864498
C         0.93639015114942    3.73836394476626   12.14188859773630
H         1.96704799246412    3.87910094932760   11.83078636188072
H         0.94564632079129    3.56309858714569   13.21514890504579
H         0.38472946252354    4.64938330432822   11.93039407428156
C         0.82687926635813    1.23587452277833   12.03630793363371
H         0.46109347756592    0.37974032125203   11.46720092877916
H         0.44418028913303    1.15826579611577   13.05259333761019
H         1.91147163624493    1.20830813377169   12.07488006852376
C        -1.74165234551892    3.00396168026690   12.50216820873253
H        -1.18754576741850    3.59531905761452   13.22675491378764
C        -3.12392903554223    2.80762808480380   12.81773888602493
C        -3.73084488823781    3.50546807558083   13.86860268684639
H        -3.15645745238285    4.25158828877593   14.39894874398517
C        -5.04097453094290    3.26547597893117   14.21448727111752
H        -5.50256154668950    3.82254750923812   15.01495754470108
C        -5.77291183900521    2.29731788750655   13.52943479515928
H        -6.80167123260772    2.11269443905746   13.80065652996253
C        -5.19921095204760    1.57195635499519   12.51073826908537
H        -5.75927329374792    0.82184793664435   11.97265239389720
C        -3.87341868218781    1.82048629688566   12.11632027645108
C        -3.66788764270888    3.76257327396483    8.71041521595112
C        -4.64600727771678    2.67665583636530    8.33302577905626
H        -4.93570846582021    1.97160502959433    9.10373856595514
C        -5.13557608737740    2.56957564992649    7.09761738675486
H        -4.86829547908770    3.27208618161301    6.32256003292482
C        -6.05217550853000    1.49253320405306    6.71043040932303

