61
CSD_code = KAPJOC | q = 0 | S = 0 | Stoichiometry = C26H20Cl2N12Zn | MND = 4
Zn        3.97485382375540   13.59217625264028    7.09233099751597
Cl        5.47128750462747   15.00915361119125    7.89188789158456
N         2.78912267509972   14.84180443036084    5.82483555390055
N         0.79313527954161   18.68640869500960    3.33480980191536
N        -1.03654803334846   17.26211399547463    3.72217121535486
N        -1.36549401529351   19.28328441122351    2.57043170839110
N        -5.94754875136070   17.28777767257714    2.78246794236050
N         0.43711029618544   20.64826897932591    2.20806591662879
H         1.41312351010467   20.85366876064336    2.31962579065271
H        -0.18142358904371   21.29621397417138    1.75525954219551
C         3.24773882145839   16.02869518548620    5.43730931587835
H         4.27756180265974   16.23988046370707    5.68901117171668
C         2.46129205696593   16.95015680071095    4.77267844232994
H         2.85188395347218   17.90805565484793    4.47086923562305
C         1.13369592510710   16.62702668861173    4.50259453872049
C         0.66032254252765   15.38259288330513    4.91102994228395
H        -0.36348186586249   15.10803190500360    4.71720633041668
C         1.52333191758555   14.52526789698684    5.56672325093241
H         1.20124291819082   13.55416066045100    5.91627403943565
C         0.24950235640242   17.57852471763049    3.81347750197014
C        -0.05742531784032   19.51477097751190    2.71633956389643
C        -1.80643993267531   18.14987947351019    3.09415400078341
C        -3.23751573836949   17.84999919505661    2.98176398911953
C        -4.07508638959221   18.64623362984664    2.20337136244062
H        -3.67047163549924   19.49127744966646    1.67062253577939
C        -5.41868267816830   18.31607550890509    2.14087635590594
H        -6.11098761554177   18.90136025821396    1.54974423994732
C        -5.15104404150201   16.53468850802751    3.52182250588955
H        -5.63065787249611   15.70760726036233    4.02879181783967
C        -3.79192604149243   16.76516437080478    3.65767119561075
H        -3.16717606836473   16.13598793456607    4.27024338478989
Cl        2.48060188162230   12.17528712533807    7.89586208126185
N         5.15807481829934   12.34288423897228    5.82198165916698
N         7.15461526537101    8.49769189372374    3.33311363232735
N         8.98396721067916    9.92259554176447    3.71987564578374
N         9.31387335222208    7.89983412347059    2.57126775239865
N        13.89596222145541    9.89536690843246    2.78468963936556
N         7.51108571283680    6.53562364065209    2.20687146152514
H         6.53499584976765    6.33025328072937    2.31789534481609
H         8.13000984548277    5.88716329973116    1.75533650805420
C         4.70056114186059   11.15446311871334    5.43783744696414
H         3.67170004470238   10.94203191022899    5.69238409055157
C         5.48703817452200   10.23298265713084    4.77325653986102
H         5.09740923805778    9.27376522602812    4.47441895692327
C         6.81349301836538   10.55773025245591    4.49955507447347
C         7.28561198865453   11.80388194412116    4.90415622050038
H         8.30848839905234   12.07979410838154    4.70742638452510
C         6.42268150080954   12.66107277498692    5.56009619568277
H         6.74393913715187   13.63343175396659    5.90687982165479
C         7.69796707712655    9.60600151820969    3.81112213413900
C         8.00553352489173    7.66895759194561    2.71563169377519
C         9.75448908276885    9.03387933853736    3.09394642764579
C        11.18574019107415    9.33341534370406    2.98258055647085
C        12.02568183815183    8.53054557213919    2.21357149813456
H        11.62286323466528    7.68034386082195    1.68769396699089
C        13.36925044958964    8.86086501047820    2.15137992741972
H        14.06337540173821    8.27033778612789    1.56761030967690
C        13.09726213409025   10.65476931191401    3.51518166041983
H        13.57513160567884   11.48692627801314    4.01548435312444
C        11.73793714771984   10.42468096865467    3.64994079146160
H        11.11136371435397   11.05911541471427    4.25519114295982

