52
CSD_code = KAPJUG | q = 0 | S = 0 | Stoichiometry = C12H30B8IrN | MND = 9
Ir       12.61460462816530    0.23491985989138    3.18769142719749
C        11.24205321615086    0.30269705341347    1.92611428608600
N        10.39962331883672    0.25512064675261    1.10135571390431
C         9.35032394159693    0.34795204351786    0.18934769411732
C        12.91542835857112   -1.86486794182412    4.15448239028153
C        13.76616662796790   -0.97394882046027    4.84746373643167
C        14.72629679977024   -0.46415992961678    3.92580676410727
C        14.48694033360920   -1.05141397770938    2.66041242855755
C        13.33435094818476   -1.88622761527822    2.78353893758278
C        11.88289724270921   -2.75741456767211    4.76929724607801
C        13.78904856676623   -0.76515700788785    6.32798178215946
C        15.93533400211518    0.34083027712144    4.28224409864267
C        15.37463777993222   -0.93812014075150    1.46119712479595
C        12.84721413230785   -2.85255181039718    1.74494715674590
B        12.75275542733804    2.22887796109755    4.24726270844190
B        11.35104506586507    3.22214282188945    4.68870426960588
B        12.54800814217986    3.79884258876138    3.44418388606048
B        11.25557156171565    1.39412547284981    4.56110889333894
B         9.77219208348151    2.66508362675453    3.94399214258884
B        10.89720191939018    4.09133503377713    3.32503600751296
B        11.89872385647267    3.68559312279762    1.73743026675024
B        13.17701108532889    2.32277464980364    2.55856795025725
H         9.73392254688337    0.23647644491559   -0.82774527259763
H         8.86053559163250    1.32032776420739    0.28186296409272
H         8.61853010393063   -0.43993538965454    0.38353002748565
H        11.12052377712713   -3.03563718559453    4.04420662133553
H        11.39101232398159   -2.26849973794283    5.60830660412540
H        12.34631732953095   -3.67510319723953    5.13987344578699
H        14.12280067414011    0.23948661623131    6.58061500848755
H        14.47222560005630   -1.47662177605957    6.79900460078660
H        12.80108236776261   -0.91149134118641    6.76055865824807
H        16.21540179760043    1.01147781033001    3.47156861965853
H        16.78227252568152   -0.32118067695597    4.47917154091667
H        15.76375941724831    0.93991857210286    5.17364538416572
H        14.82588110703297   -1.14020488996946    0.54339180432342
H        16.19645005043665   -1.65531346938378    1.52802524956945
H        15.80661339325646    0.05838058396198    1.38761747078652
H        12.99111498257374   -2.45838705395246    0.74075664569641
H        11.78937760655034   -3.07315558222123    1.87513687392021
H        13.39972818681210   -3.79173466032603    1.82149358619648
H        13.62161796600143    2.13682937786954    5.04140621329857
H        11.25905781950702    3.68321925738883    5.76843506289965
H        13.31599608507864    4.67149268198493    3.63367680444881
H        11.08216708564671    0.78903352004549    5.55792142158946
H         8.91822431692525    2.78419321517495    4.75242783800783
H         9.30888086519277    2.68758421343394    2.85204468380486
H        10.30203799085782    5.09391320042583    3.21602914854965
H        12.46151951961396    4.48237575676043    1.06963191611381
H        10.84024195485266    3.43085865324399    1.26520752747180
H        14.30109885875871    2.34029801813015    2.20231862676684
H        10.14405180672956    1.38575374066140    3.94080384123920
H        12.46762731014084    2.50101218678648    1.51561017158509

