66
CSD_code = KAPKIV | q = 0 | S = 0 | Stoichiometry = C22H36IN4NbO2 | MND = 7
I         3.43003803468329    2.95817807818832   32.56250164583715
Nb        1.58939966917562    3.84502782372442   34.68169047807257
C         2.42269068354795    2.48376299050287   36.07972718205522
N         2.52931079583962    1.48428064557835   36.66313806719491
C         2.50394927957195    0.23649300811781   37.31425522484411
C         1.59514093059611    0.37267485897931   38.53930086979607
H         2.01329300889964    1.08238327816701   39.25102369601344
H         1.48791272007349   -0.59255089136121   39.02697839049599
H         0.61239570950623    0.72516060342681   38.23088125321119
C         1.92154833031177   -0.77133086905030   36.31709799901998
H         0.91514135963671   -0.46921765024359   36.03354254748022
H         1.87786328539562   -1.75757053336225   36.77162018077662
H         2.53711031137875   -0.82178695409314   35.42021474122897
C         3.93380818967693   -0.13730675517174   37.71061250815212
H         4.57000143099654   -0.19644243830501   36.82959325405943
H         3.93338422355927   -1.10374409847628   38.20757369540313
H         4.34930734385013    0.60447159523436   38.39013301119397
C         0.71545334852034    4.90826617064600   33.11335308920830
N         0.24439183622213    5.28901200689000   32.11518023377891
C        -0.16175660824247    5.52675555280774   30.78450718889470
C        -1.04749955300426    6.77413299925334   30.75592674152186
H        -0.49516179032112    7.64117447171267   31.11135230077200
H        -1.91953542309528    6.63644699311348   31.39148877987091
H        -1.38213979108923    6.96492466445437   29.73979269648489
C        -0.93082221334775    4.29054859790257   30.30978428982296
H        -1.21233927106492    4.40568891865984   29.26638724294740
H        -1.83232586420069    4.15695031490232   30.90408929950339
H        -0.30862798220673    3.40433123054010   30.41603149171404
C         1.10865013809229    5.72747601719952   29.95167255646480
H         0.84644548129797    5.87087550296746   28.90711888584967
H         1.75531484742123    4.85696272731408   30.03829073576377
H         1.65711708328213    6.59994273295415   30.29956649271351
C         0.10976154247191    2.50199627052980   34.02994120231386
N        -0.46185312090821    1.82644413555913   33.17356828543749
C        -1.71991188279378    1.11020950623177   33.15545183443514
C        -2.84407530210947    2.02177749807240   33.65957901397908
H        -2.67771498508868    2.29377509922531   34.70031058180744
H        -3.80085110622694    1.51044734230399   33.58543633067177
H        -2.88696172931815    2.93507418635220   33.06736973089134
C        -1.97386799622007    0.69105812100917   31.70610993797709
H        -2.10046154211802    1.56580577414971   31.07346193509616
H        -2.87090610523096    0.08012439327970   31.64427775267232
H        -1.12892615411873    0.11714186575691   31.33393564980255
C        -1.59692381567658   -0.12876050336491   34.05017634208926
H        -0.78579123645579   -0.76458341734200   33.69968542293238
H        -2.52424445075560   -0.69644721743399   34.02993134929947
H        -1.39363652173615    0.17047671113927   35.07651930793007
C         3.13270543540909    5.31019586886365   34.74016219625727
N         4.02946342589729    6.02869185020542   34.54303245780117
C         5.07761435684166    6.76861054123542   33.95301511900844
C         6.31028893136652    5.86096531817921   33.91769220334985
H         6.61022731097033    5.58388768237800   34.92566372254272
H         7.13382711463550    6.38115775945269   33.43710530349678
H         6.09066298390640    4.95526894751213   33.35639881856399
C         5.32749489916082    8.01811635503307   34.79840922225042
H         4.43214688104646    8.63438041973890   34.84235450430226
H         6.13202685523911    8.60155847035280   34.35949666380878
H         5.60967365043184    7.74293232530341   35.81216438242848
C         4.63028717184661    7.13093693432037   32.53308850340040
H         4.42140588667811    6.22469823534576   31.96833429619629
H         5.41736687165394    7.68619551417939   32.03069942706718
H         3.73005667656932    7.74130470969312   32.56298531273205
C        -0.18058729931272    4.26856424715389   35.64945765529389
O        -1.06974630773939    4.89715052995160   36.15582689557055
C        -0.14899176075700    2.77048868394696   35.46933881299998
O        -0.44811822248066    1.91778424863117   36.30689305544964

