60
CSD_code = KAPPOH | q = 0 | S = 0 | Stoichiometry = C24H32HfN2O | MND = 9
Hf        0.14892700444077    0.24287867039680   10.19278035604545
O         5.61931300315627    3.23320180478928   14.32669666000941
N         0.41197502522924   -1.97133493606092   10.32945114160082
N         2.00878529852310   -0.13109108209383   11.74511348632196
C         0.68405835109303    2.01616313045602    8.44851998253698
C        -0.01925790843893    1.00077724664807    7.75336365249530
C         0.77655643407737   -0.17429218866768    7.77376549576040
C         1.97849968324234    0.11857271472060    8.47586798699990
C         1.92060771991130    1.47520491674502    8.89624576434019
C         0.30529205272477    3.47011670730757    8.48755737302669
H        -0.77260877309616    3.59741084633392    8.57325831521471
H         0.62452314046303    3.96729560240387    7.56811906997312
H         0.78182426762731    3.97811447967804    9.32269050709422
C        -1.27148775169757    1.21550272007084    6.95002256698061
H        -1.95790969740434    1.88942868770121    7.46028764706342
H        -1.78794238480135    0.27753646913386    6.76081514324996
H        -1.02653655862761    1.66129839373342    5.98310079016875
C         0.52571517650509   -1.42181380678800    6.97300545862537
H         0.97625939507934   -2.29417854561009    7.44348994932079
H         0.95892702834292   -1.32224586535610    5.97442702135522
H        -0.54004468527894   -1.60872208951977    6.85243181179379
C         3.18089655252813   -0.78483994314844    8.51186992745152
H         2.90164083472727   -1.81944871563360    8.71224595265381
H         3.89228755094946   -0.47101351447371    9.27297797059242
H         3.69558089517479   -0.76375027834165    7.54769910640739
C         3.04552049828760    2.30191265327819    9.45953902051574
H         3.91169347710872    1.68750378062634    9.68966878473770
H         2.75465378474171    2.82655461726215   10.37111117254438
H         3.35468303690019    3.05272847455748    8.72919000709370
C        -2.01360839253576   -0.23727466010704    9.97125229051804
H        -2.19819763024806   -0.90564659786135    9.12569883322290
H        -2.64440616890053    0.64444277387014    9.82274999989275
H        -2.39068444543771   -0.74695832793682   10.86700798135245
C        -0.38784519476446    1.96179748847179   11.48509130800943
H         0.43509621675004    2.66596187886920   11.63967125850696
H        -0.72705837546472    1.64173080287594   12.47935353828976
H        -1.21386737921054    2.54633522309918   11.06505424417047
C        -0.11987178799542   -3.10185099943677    9.85105697764037
H        -0.99996636379768   -3.08745833707013    9.23190032214339
C         0.60568577765800   -4.22384465364126   10.25938801537596
H         0.39036235810392   -5.24514822669344   10.01039184628607
C         1.64474552581583   -3.75202391596960   11.04070890895721
H         2.40967743997404   -4.32348966801911   11.53120489926270
C         1.50783992312385   -2.35148824398676   11.07551731988211
C         2.29029467650696   -1.40250951008754   11.74778204869226
H         3.14725876187498   -1.77812613045833   12.31343314597460
C         2.90689861060417    0.71190225105778   12.42155236316542
C         4.28603832715492    0.62567380862316   12.20955176563209
H         4.67539805711709   -0.10694059488655   11.51682948676966
C         5.15429722420016    1.47913787569647   12.85183824669048
H         6.21733940072637    1.42407660558881   12.67793623297056
C         4.67704631242404    2.43697044718018   13.74724400822914
C         3.30920912245334    2.50809093259517   13.98778547370731
H         2.90512797908255    3.21973782849694   14.69049429739245
C         2.44012519525665    1.65494353485088   13.33169436908224
H         1.38532357479046    1.70097880186062   13.54957810177513
C         5.19734168723952    4.22022833076555   15.23508006440315
H         6.10340093948147    4.73116573667033   15.55700860712672
H         4.70240180179317    3.78022072481450   16.10712106097309
H         4.52456437483869    4.94249387063703   14.76121086188943

