31
CSD_code = KAPQOI | q = 0 | S = 0 | Stoichiometry = C4H11B10ClNO3Re | MND = 9
C         1.92636275787130   -0.63125715930027    2.82622584646490
H         1.86377908329834    0.38407863138188    3.21690295578449
B         3.36448655826282   -1.26125967384418    2.81678613139767
H         4.19983759427375   -0.66892406706904    3.39615120134556
B         0.60687971443534   -1.18415512728414    2.20246513488806
H        -0.38130928835522   -0.54020065729201    2.24490371519176
Re        1.35452139262056   -2.45651672482552    4.20017488605085
B         2.54342728878740   -0.81480972395208    1.17958603069635
H         2.76915498621781    0.24165053386465    0.71789049037839
C         0.50181589403947   -2.78303209598664    1.78070788897643
H        -0.53701597622219   -3.10894822612956    1.77368933152159
B         3.30368689172979   -3.16731747221878    2.75806167347100
Cl        4.46917122813427   -4.03104523652684    3.82570225531366
B         3.84626297308292   -2.15705785138588    1.41324053229782
H         4.98908454244516   -2.04492347391351    1.16029438938504
B         1.02765822370001   -1.77119328796366    0.51171007906234
H         0.23790243995731   -1.31432170644432   -0.22826567076657
B         1.65910751473732   -3.89791113715367    2.24510459437249
H         1.28140778767182   -4.97666949081580    2.53997109243164
B         2.64639155350537   -2.24703424766029    0.12625966622192
H         3.02398273913734   -2.10992782393528   -0.97912420085125
B         3.03028317055208   -3.71995143125956    1.11446577474766
H         3.64424963097948   -4.64646883570133    0.73332860165375
B         1.39316285686715   -3.47228978375298    0.51856033668342
H         0.83974249580526   -4.22764030957752   -0.18885435788832
C        -0.27610723361166   -1.50504308293010    4.75524802901674
C         2.36841383090988   -1.72405704288122    5.69285087865883
N         1.34811171249479   -4.10490132693657    4.84159948097729
O        -1.27060602066756   -1.11567963048215    5.16289425456622
O         3.00218327578677   -1.30148633282624    6.54107419888786
O         1.35567038154897   -5.17730620519704    5.30229477906147

