49
CSD_code = KAPSEA | q = 0 | S = 0 | Stoichiometry = C17H27Cl2IrN2 | MND = 8
Ir       -1.23590071561244    1.64541643771984    2.85371683070739
Cl       -3.09387806214883    0.61057915650013    1.84311387387498
Cl       -0.38984830024758   -0.52446253633129    3.27192009147437
N        -3.42255799462615    2.17198632150727    4.93528993175230
N        -1.62052792653379    1.46723744213567    5.87069486884310
C        -2.18183777094659    1.70859325489128    4.66456609538072
C        -3.64241505984478    2.20815160533835    6.29374851863779
C        -2.50178992362803    1.76275963868694    6.88568393561160
C        -4.41979387803202    2.60803834150752    3.99560173673358
C        -0.28904468522440    0.99291062311218    6.13410520323239
C        -4.92929599117662    2.66309657786157    6.87917000499221
C        -2.15521827315463    1.58216058511546    8.31851566649858
C        -0.27205456000131    3.66550988759281    3.03041732096568
C        -1.21776709276277    3.67108458027478    1.95398378955042
C        -0.71494425402756    2.79475194590358    0.91982920286763
C         0.45309392512978    2.18210798467839    1.39690479956091
C         0.72677713062262    2.69995274097096    2.72067329899345
C        -0.27144928409595    4.60416283114780    4.19604659959701
C        -2.32080627086738    4.65948193390017    1.74699746880874
C        -1.34871441504647    2.65212031562808   -0.42386162669466
C         1.36778895318799    1.24870289196932    0.67462440592922
C         1.99318745569622    2.42959472694658    3.46552709072594
H        -1.28497766580223    4.83859569266588    4.51570971394131
H         0.26591698691102    4.18208370240970    5.04205012830721
H         0.21897979805897    5.53756845990280    3.91299019387557
H        -4.86322960041098    2.67352257419053    7.96286686254374
H        -5.17923607927353    3.66610113061433    6.53553734031766
H        -5.73986720570985    1.99486443225617    6.59000317294036
H        -2.96622988574982    1.93865086054740    8.94629066217548
H        -1.98389333450905    0.52965272673697    8.54254479938934
H        -1.25054685889446    2.13376771839717    8.57120191068588
H         1.95107960475927    2.82067936264260    4.47898232203607
H         2.18588606846039    1.35907582216853    3.51163062535065
H         2.83225851835775    2.90031748141718    2.94955585670596
H         1.53764478736136    0.35084749609368    1.26849697960349
H         0.94799185466504    0.94702099412930   -0.28151034895462
H         2.33277487717771    1.72829588864957    0.50080612452314
H        -0.32707704975277    0.15380208425224    6.82733952013481
H         0.15883994752413    0.64910111216157    5.20411755540905
H         0.31456911763285    1.78982396336455    6.57274667570776
H        -5.36219195596496    2.09995306584567    4.19607205472018
H        -4.57034699805212    3.68577716487163    4.08024816939285
H        -4.09896793793395    2.35045276318901    2.98859988772771
H        -2.66838597758868    5.06549821428268    2.69390250375879
H        -1.96526295344526    5.48894986588139    1.13163668729529
H        -3.16082353648417    4.19495916469217    1.23521751471193
H        -2.32122262299029    2.16577484152720   -0.33653467873259
H        -1.49857526923327    3.63512002145158   -0.87114008385076
H        -0.72950963577140    2.05470610860028   -1.08803125775769

