62
CSD_code = KAPVAZ | q = 0 | S = 0 | Stoichiometry = C28H27Cl2N3OTi | MND = 6
C        12.93908966790045   -0.34675459311390    1.06166322802385
C        12.00139355177457   -0.90581604407443    1.92840271985469
H        12.29185756813210   -1.14243718829298    2.94381741605160
C        10.71758000898771   -1.15556690914426    1.48129002925741
H         9.99191973625983   -1.58531917650831    2.15556045621901
C        10.35938801885444   -0.85364388361554    0.17714050821776
H         9.35187069181371   -1.03940041894312   -0.16216631590427
C        11.29485298442007   -0.31131117626378   -0.68834307698965
H        11.01880839950322   -0.07547357773683   -1.70499497544834
C        12.58570963955464   -0.06545082483091   -0.25693481877451
H        13.31729559588565    0.39029787882056   -0.91056975151479
C        15.24250423742627   -0.61501302560357    1.00346236788179
H        15.07316969827282   -1.39468831255989    0.24969422718028
C        16.61024227962242   -0.35754479946934    1.33223677940212
C        16.95576017712188    0.70951396621792    2.21163577286848
C        18.32353496936056    0.99000204654970    2.47678249446585
C        19.27331784270703    0.17091063693148    1.89869048538018
H        20.31973593114357    0.34862681344978    2.08457899831334
C        18.93643331140770   -0.89258192062113    1.05983469292338
H        19.71943750808258   -1.50112455973941    0.63421468013947
C        17.62239072627206   -1.14615430111476    0.76405147868994
H        17.35025790445785   -1.95129939955845    0.09696615683415
C        18.67949329619048    2.20328442858637    3.32498550519264
C        18.18740240325476    3.46059822282594    2.59014536975386
H        18.65338898516725    3.53197650812932    1.60870221286573
H        18.44470369736628    4.34809165349608    3.16382669768351
H        17.10400123294386    3.44604077043799    2.45824419813192
C        20.19095839931592    2.33379755447594    3.54164200017423
H        20.58966825995087    1.46547412961038    4.06182347730009
H        20.38852366899607    3.21147663686951    4.15276513736514
H        20.71623948812181    2.46165474709279    2.59815654331000
C        18.00781746712440    2.10888287812699    4.70345351267648
H        16.92443033163344    2.18616413399857    4.62212155555052
H        18.35470623096417    2.92327851146106    5.33530230743315
H        18.25557069774475    1.16503747863595    5.18655729237800
C        11.54105992813330    2.72146260482390    1.37847050777387
H        11.84914828220376    3.03071948285412    0.39230650524294
C        10.26694557675903    2.82528026565770    1.95609460300794
H         9.39240433365016    3.23300677230841    1.48749788031311
C        10.36654470760460    2.31004803019642    3.23436163706293
H         9.59161229071818    2.23255716992866    3.97281516050576
C        11.70714034169365    1.90620679063047    3.39295039739314
C        12.43225474556032    1.32959416405986    4.43967439868498
H        11.96570727849997    1.14059751750454    5.40951033621770
C        14.51608487196680    0.52528962019567    5.20788111185294
C        14.57148890043338    1.13662777134279    6.46196744922346
H        13.94445097176506    1.99451461237224    6.66063364062758
C        15.46357904461999    0.67994770738924    7.41407856770875
H        15.50992445447911    1.16556308961270    8.37737848700639
C        16.30032041067237   -0.38812416707114    7.13572634885476
H        16.99744310542470   -0.73823838824007    7.88178574197430
C        16.24661998425628   -1.00098472175725    5.89297913558785
H        16.89878371436929   -1.83340880281579    5.67201205663310
C        15.36299458045558   -0.55122393197845    4.93139948245818
H        15.30940079892335   -1.02836166799634    3.95977524372557
N        12.40459150849052    2.16703446903003    2.22489166940119
N        13.67093918999572    0.99073925200616    4.20412814435743
N        14.22522875568592   -0.03176408815508    1.53232236376736
O        15.99937002678426    1.41043928283624    2.73386847670455
Cl       14.48179389819215    3.82439261091217    3.58593492232680
Cl       14.78558359419818    2.70073759430159    0.43985617934181
Ti       14.35963009674372    1.90081807553170    2.48556018936452

