57
CSD_code = KAPWEG | q = 0 | S = 0 | Stoichiometry = C18H31BN6Pd | MND = 6
Pd        2.08137789859056    2.01693159519890    9.55816022701890
N        -0.16323034477040    2.28060026370070    9.67181746117830
N        -0.58225234160819    3.52851333348379    9.39458934870090
N         1.98465931374059    3.49356042824172    7.84635367002509
N         1.29115792281682    4.61187389829490    8.12584249049183
N         2.17684145639400    3.84640456293131   10.88577024605422
N         1.22178482671753    4.75859117281570   10.62965608665259
C        -1.20780670993119    0.03215060699488   10.00191462208987
H        -0.31458802104797   -0.23585532106745   10.55768020580321
H        -1.23053347914854   -0.53943062358780    9.07364266810153
H        -2.08722581164192   -0.23808868266539   10.58394571729514
C        -1.23419456114171    1.49234710702812    9.70991419481277
C        -2.37574930262760    2.25437946634269    9.44449265276089
H        -3.38913542083222    1.90899097133833    9.40419224609566
C        -1.92167857956739    3.54338533884906    9.24762305167955
C        -2.72180174568859    4.75352811650245    8.92178725003936
H        -2.63102402478871    5.50422382711800    9.70519356471994
H        -3.76814083286255    4.47585411691272    8.82267239057749
H        -2.38502875143410    5.19766130966622    7.98668699436501
C         3.48397038286815    2.68093336837333    6.01696758197487
H         3.22814888355509    1.67399186044227    6.33206397005763
H         4.53189628858024    2.86864857401824    6.25261724710421
H         3.36297816236791    2.76110323479757    4.93807933448888
C         2.61514095993304    3.68553370526346    6.69075563653883
C         2.32251013725525    4.96687895002529    6.21459141791665
H         2.67778863382277    5.41759956154495    5.30987856371593
C         1.47930963717590    5.52628546957880    7.15406126276778
C         0.87372587814160    6.88422908145891    7.14365729972937
H        -0.21314515296973    6.82672380195691    7.11340252818861
H         1.22011373894977    7.42481108200306    6.26641788464564
H         1.15862201634096    7.44006667616665    8.03526300140094
C         3.90009046377312    3.45051424600967   12.65453615398270
H         4.43780657569904    2.86242996044157   11.91719938370457
H         3.52598876908299    2.78438248117579   13.43250680479751
H         4.58544597877969    4.15735253010243   13.11905963751649
C         2.77306796719407    4.19207039102392   12.02364877398034
C         2.18114348793665    5.35838852406973   12.51715211721534
H         2.43853326233815    5.88492431003109   13.41402689812722
C         1.19820833184298    5.68797332706183   11.60517356004911
C         0.25746003071055    6.83842858150404   11.65286899543019
H        -0.77472506655711    6.49242856036576   11.64854328597151
H         0.39841789083588    7.49391745215996   10.79501378913557
H         0.43358056747052    7.40842401103565   12.56162815678572
C         4.12330440523186    1.89423677291852    9.37377284108625
H         4.60016145018816    1.22430454869465   10.09144497496727
H         4.49574100052041    2.91281473279377    9.52725898880886
H         4.41942786097747    1.57268337100946    8.37553531435097
C         1.85477403480507    0.39008854482891    8.32517347193895
H         2.79291217879317   -0.06977707106422    8.00947709611940
H         1.31893031318095    0.75976174926888    7.44425534054832
H         1.24686470038951   -0.38605115752776    8.78958185292128
C         2.14071423507226    0.78521747425376   11.20065265962773
H         3.02849056652239    0.96480672157608   11.80662033986223
H         2.11133969256537   -0.28016646385378   10.96530729348482
H         1.26200202128151    1.04778748949261   11.79948854954686
B         0.36828581601103    4.73712312303869    9.35004886697590
H        -0.25845759183531    5.73230893585721    9.27443403606845

