26
CSD_code = KAPXIL | q = 0 | S = 0 | Stoichiometry = C9H10BMnN2O3 | MND = 6
C         1.88426633318719   -1.81439584057467    2.14930319759855
H         1.31013008037264   -2.05184580194194    3.05135812724665
H         2.89128885672544   -2.20750713312325    2.27722602248746
H         1.42796790180495   -2.32203932449270    1.29276139815366
C         0.78182451551369    0.23788727546890    1.76307472684174
C        -0.49586224805436   -0.40725554169649    1.77890384171672
H        -0.54824853893666   -1.47019472160533    1.93740705284941
C        -1.63987537978002    0.30548435973766    1.59649738585328
H        -2.59840026706821   -0.19054740603669    1.61047359262666
C        -1.57202652639615    1.69597614998561    1.38870361998165
H        -2.46328534107351    2.28141332818977    1.24201787219101
C        -0.34527218902753    2.28385310225128    1.37771188880133
H        -0.22590579099875    3.34553207661431    1.22306143714025
C         4.45772732157529   -0.51867081395604    0.81512575370325
C         4.29604270466307   -0.13401515037299    3.34481595613981
C         5.18157777546817    1.66202657316564    1.83217460617994
B         2.13924386619985    2.28361430505328    1.53814304554547
Mn        3.68817921339211    0.67705538590529    1.88347475516054
N         0.80231549053945    1.59764315944221    1.55645216203942
N         1.94054295306387   -0.37369716878733    1.93185432801733
O         4.98143420344260   -1.29898897581529    0.15321559316270
O         4.71813681674991   -0.67179457632719    4.26892366951610
O         6.17080414066823    2.24588608996132    1.81108080678537
H         2.05607611014403    3.44532859213646    1.35511509136708
H         2.75924876057845    1.97205761071177    2.65901238191821
H         2.88956923724625    1.66469444610646    0.64831168697653

