54
CSD_code = KAPXOR | q = 0 | S = 0 | Stoichiometry = C16H32BN2OPRu | MND = 6
C         4.04019625570981    2.53671554289653    1.87736207466890
H         3.65807576238846    1.68068119032156    1.30821626254098
H         4.02992237749543    3.41786625594654    1.24184762324224
H         3.37108928642129    2.72036657114401    2.72536923801498
C         5.58559258301058    1.32458891146207    3.17884138318282
C         4.57631963819061    0.40672871991303    3.61810857024123
H         3.57315225704767    0.51394372974451    3.24230728424761
C         4.87175473716869   -0.59208314132075    4.49038475345473
H         4.10485691200387   -1.28091215098320    4.81179531460857
C         6.18719135824322   -0.72950535294638    4.97893418223115
H         6.44428177977784   -1.51270100798103    5.67130516741716
C         7.12502264438010    0.15924383328210    4.55487621617337
H         8.14842937970746    0.11081139380766    4.89671111158262
C         5.66314495832355    2.39976460666540   -1.24167911660863
H         4.68031427754348    2.69018357605093   -0.84986268221334
C         5.57496812245873    2.38618354903223   -2.76477388851779
H         6.47627393571404    1.96844732720615   -3.20548586740989
H         5.40709815145648    3.37956797830748   -3.17147294092920
H         4.73914524068943    1.75496673296042   -3.06778115472681
C         5.95904374528786    0.99439533302229   -0.71941184882020
H         5.10312570643949    0.34168043297793   -0.89195801436694
H         6.16213213414103    1.01773573347631    0.35108042061112
H         6.81742401935093    0.55583278034270   -1.22107667499755
C         8.44541826721716    3.62730326271737   -1.33786814757436
H         9.05364356726510    4.30173916952751   -0.71924826767359
C         8.52546246552071    4.12664450367677   -2.77976537753340
H         9.56035697765249    4.04678442387732   -3.11275459097190
H         8.23402524147151    5.16873039993247   -2.86800600912329
H         7.91467557216540    3.53507560443307   -3.45349516847051
C         9.06709068544991    2.23600321656964   -1.23366987956670
H         8.63717965834059    1.56012742839528   -1.96938513002163
H         8.91532209027785    1.82151245529061   -0.23723128041475
H        10.13944819719340    2.28995953447871   -1.41662541184056
C         6.08103222858881    5.27130553735805   -1.14458568830971
H         6.13484591704325    5.21913224920684   -2.23732789204498
C         4.62939296230377    5.47746577366842   -0.72624089141234
H         4.55904239421345    5.43985077392641    0.35976650231593
H         3.96823601846113    4.73024268790106   -1.15946445438698
H         4.28703148243666    6.45775404954399   -1.05438211609770
C         6.91804494975037    6.44519997661336   -0.64450267746041
H         6.51563820597311    7.38288814955507   -1.02517270022023
H         7.95679280033637    6.36877904937637   -0.95540302893374
H         6.88951971598034    6.46930785100173    0.44464092924022
C         8.50891206161536    4.67637390122881    1.71337937218983
B         7.90671031903079    2.14796359430496    3.26416834052712
N         6.85876762548219    1.15661390528187    3.68742074760292
N         5.40130213769445    2.31058957471899    2.33028119568985
O         9.42347413151907    5.38547537661006    1.69869803977347
P         6.78370946148567    3.68537718205376   -0.44054566826214
Ru        7.06430293689683    3.55364178549012    1.87083491935939
H         8.93988967245963    1.98250201616988    3.81538590559849
H         7.37225581418240    3.40749073888841    3.50332196225938
H         7.99816155513226    2.13348275561077    1.94544303890509
H         6.13545962390508    4.75648052727110    2.06659601323054

