81
CSD_code = KAPYIM | q = 0 | S = 0 | Stoichiometry = C28H46BNO3PRh | MND = 6
Rh        6.26389083459646    3.00567673072191    2.40061751031180
P         4.94194291701440    3.56529001122997    5.03387700250083
O         5.64270606582386    4.92037755995025    4.94817820089889
O         5.86011940400923    2.61854719013763    5.94883011467435
O         3.72953232613030    3.67640346047340    6.04869356094157
N         4.56330184437132    2.95890712848441    3.59278027362179
C         8.29441267612420    2.97305829637536    1.83130776745079
H         8.82522779815245    3.78963135930249    2.32321988650340
C         7.51775623312695    3.28723394263951    0.71471763768939
H         7.47138379990202    4.33414434899754    0.41366489103894
C         7.26026758400379    2.29972621036242   -0.40516402408124
H         7.17410985808525    2.84257676798118   -1.34809338615894
H         8.11988220699591    1.63375918920308   -0.49519321147151
C         5.97134189074860    1.48637674853827   -0.18209795380954
H         5.13701368267716    2.00299537187978   -0.66081015307007
H         6.05910630800737    0.50434677179894   -0.65961508628939
C         5.62488587101139    1.29733866201302    1.27677748874336
H         4.56482023160736    1.12156664914893    1.45143965589111
C         6.51705480849831    0.86893840475854    2.25088250360654
H         6.09333025052462    0.41100943678325    3.14421708659623
C         7.94173597431977    0.45436246602213    1.94492649227055
H         7.97385583232801    0.03293624583393    0.93898448042233
H         8.23951818917249   -0.33723985155288    2.63516335835819
C         8.93752728337688    1.62363282204894    2.06549475630136
H         9.37301387180010    1.62209380536172    3.06753351461298
H         9.76232173643517    1.48946271083792    1.35700272620801
C         3.33885436201046    2.35047114279522    3.30007744533883
C         2.81513455412006    1.29792830232665    4.06522665708432
C         1.57410511155942    0.77105219565284    3.73575731749154
H         1.16942187627444   -0.03054571658956    4.33778458541509
C         0.85916348527056    1.23959152567758    2.65026690258288
H        -0.10519758268797    0.81809164693903    2.40872181604145
C         1.40338769244200    2.23712754773056    1.86253755015802
H         0.86390651450975    2.59261084057580    0.99585838603691
C         2.63169734804200    2.80064776788052    2.16865616499332
C         3.18659309367641    3.87790193185604    1.28385717477428
H         2.89673699424961    4.86255291288348    1.65114833353343
H         2.80401576755363    3.77114511242879    0.27093043106516
H         4.28563792730332    3.84203712136972    1.26497484905063
C         3.58523830614120    0.70573212771798    5.20475846780739
H         4.61957143523795    0.52990383017123    4.91237871229480
H         3.14087552924261   -0.24016045947622    5.50817071675922
H         3.59974490429769    1.37395510945385    6.06405466565184
C         7.20844901137055    2.37107745812626    5.57974408561929
H         7.34223146564166    2.58307753209671    4.49875950660708
H         7.38840966091096    1.30557432108719    5.76184847705479
C         8.15935441218933    3.22300295580997    6.40345012258796
H         7.94697809537328    4.27467175738217    6.23322048295176
H         9.18758240274747    3.01279092594604    6.11955867443687
H         8.02948754578872    3.00766050880558    7.46124920077540
C         2.93911413445944    4.85440106907999    6.13901615998631
H         3.59775449368564    5.72115245918989    6.24887096678353
H         2.35244600512095    4.72762587087848    7.05359271362454
C         2.03673697421434    5.02885443626363    4.93131796603726
H         2.64827079854707    5.17865307328645    4.04522308143524
H         1.39253958875307    5.89306887121653    5.07197718995376
H         1.42489698428143    4.14166415739329    4.78446707710645
C         7.62114400618469    6.29417956036641    3.98563279641789
H         8.38534378224849    5.61240434684519    4.38316251504102
C         8.20083107110180    6.86620988889447    2.68184255860625
H         9.10387245382356    7.44529681672999    2.90085925746791
H         8.50433860315735    6.01704180722003    2.06304239941415
C         7.25337592042405    7.73993052707436    1.85412624832029
H         7.66086967256981    7.82015690912439    0.84069547374455
H         7.23898977985765    8.75158563918239    2.25435589279490
C         5.82181026807502    7.20969182839942    1.75911519875880
H         5.18680130458811    7.99765070919940    1.34140547330425
H         5.80361096120472    6.36869299313125    1.05849463445421
C         5.23763023454788    6.70413846309279    3.08473750349251
H         4.23381806958653    6.32357982353439    2.85403399259561
C         5.03678416629049    7.80577013173567    4.13966720723314
H         4.43563930821460    8.61954760447007    3.71973530635313
H         4.45932785310460    7.36288431926107    4.95593770185900
C         6.32044764773620    8.39590061923401    4.72837756955349
H         6.05995662602962    8.94066168029051    5.64234158540620
H         6.73937742020708    9.13181551305928    4.04494216595414
C         7.38382658164882    7.35357217062906    5.07479192699915
H         8.32057028472372    7.87152399296238    5.30718058064825
H         7.06754093174039    6.82135802779954    5.97601212734865
B         6.20767865299161    5.56666644233154    3.69579884998309
H         6.36571602881591    4.58776941004185    2.82872005942901

