88
CSD_code = KAPZIN | q = 0 | S = 0 | Stoichiometry = C31H50BNO3PRh | MND = 6
Rh        6.61966950716604    9.40000861285839   11.73295393928463
P         5.47807493906442    7.23584240661819    9.68603031650442
O         6.82227125477451    6.58429315443300    9.89451900802545
O         5.27784706672441    7.53720349950731    8.11161211433682
O         4.44850840464612    6.02560797357512    9.95767651135683
N         5.17358058962840    8.56124370641828   10.52179329714837
C         8.16871713510839   10.62588019372407   12.42327828486279
H         9.18501519114524   10.40846770808934   12.12091798636997
C         7.49634621971600   10.06615638257496   13.51328390186874
H         7.90065742421683    9.34468876447980   14.21281565640855
C         6.40752662869184   11.06982877273633   13.89734883402626
H         5.96411082543395   10.96401141496360   14.88405283997801
C         7.09766948673881   12.40116197554445   13.56633908570338
H         7.96101578004468   12.60455402559751   14.20025553980692
H         6.41556852213636   13.25167182107105   13.58323036734753
C         7.48410477664794   11.96487625000948   12.14572086423821
H         8.02623583272067   12.67697764865112   11.52908905809454
C         6.13730768463188   11.47183736587003   11.61395480821191
H         5.68798822918692   11.83088836747792   10.69734475671872
C         5.46969026334754   10.92069311749406   12.69875384345878
H         4.40138028578259   10.77771930410723   12.79052605708261
C         3.82466165534914    8.92421968447844   10.72146565524493
C         3.17400339782740    8.49116137017612   11.88762232871830
C         1.85651991290400    8.86346323633630   12.10410812680799
H         1.35130165454775    8.53005135149083   12.99991838974707
C         1.18495053367526    9.65514642216188   11.18836275872738
H         0.15709789767875    9.93502060910235   11.36597136999710
C         1.83928094348496   10.09834980637893   10.05429151743936
H         1.32167282629379   10.73062409892005    9.34664737368055
C         3.15950361721467    9.74645364048460    9.80701779192861
C         3.86353293881720   10.24155818537700    8.58117224934329
H         3.71928618425606    9.54723315622880    7.75371326773559
H         4.93381111374687   10.30907947819231    8.76606771623274
H         3.47775275213868   11.21481125171167    8.28368640520297
C         3.92193508212080    7.65889999333259   12.88370652110202
H         4.15182997125134    6.67656542936125   12.47047994696922
H         3.34632563345003    7.53401830310201   13.79788181895491
H         4.88444120730558    8.13785341805820   13.12153666588720
C         5.68628211622499    6.55696000834617    7.16102490994340
H         5.67521372397552    5.56632642462932    7.62635030995397
H         6.71467870533713    6.78140415698659    6.85896221631092
C         4.75780615652913    6.61088784656118    5.95942128277867
H         5.07909945643290    5.88747302427497    5.21486225078691
H         4.77926420566374    7.60509415141596    5.52053699212058
H         3.73599174549381    6.38588584361985    6.25593557970349
C         3.09373731370887    6.06236890055660    9.53028287940259
H         2.95385295874305    6.86535912444628    8.79883272076493
H         2.46423718160306    6.27976984978451   10.39952683141909
C         2.71828762617012    4.71488562750365    8.93227776311475
H         1.66779219409772    4.71857534890365    8.65419547446643
H         2.89175758600205    3.92880166977844    9.66203121992147
H         3.32021304654868    4.50622086943034    8.05153870853658
C         9.05142178487892    7.84778850326809    9.75527104498247
H         9.87877188569831    8.25337231796194   10.34903522493598
C         8.40970415360983    9.01912828061045    9.00309201667053
H         7.57255247845445    8.64670473583193    8.40686150909502
H         7.99983414840564    9.74259897700458    9.73099178402928
C         9.40370023815348    9.72207907526782    8.08471579604043
H        10.21810295042019   10.14010885570947    8.68172076652637
H         8.91509521287723   10.54744742016226    7.55976267001342
C         9.97834132215602    8.73219341597392    7.07614796242346
H         9.17183718706196    8.35226649844238    6.44325878114117
H        10.70308491201901    9.23238170231300    6.42827706262814
C        10.64194320764750    7.56786229661881    7.80399896448055
H        11.48292100904395    7.94506773862522    8.39115614237076
H        11.03706519515233    6.85214969387286    7.07803929956584
C         9.65100750233477    6.87309679663614    8.73497914514405
H        10.15419173908638    6.06043447970915    9.26123958796983
H         8.84177205674672    6.43363078000818    8.14714127596411
C         8.48459526045746    5.92386856014226   11.71707765800200
H         8.77068405859190    5.05941581159056   11.10692115533191
C         9.69718135688493    6.32092236411745   12.56363496382305
H         9.43686954371118    7.19596850663035   13.16514530090017
H        10.52496256527370    6.60311990179869   11.91134450836882
C        10.14140444149078    5.18519471343322   13.48209003718344
H        10.45906142903374    4.33425527955862   12.87462651917398
H        10.99757315901748    5.50387623150881   14.08274097777691
C         9.00003137844540    4.75088830491024   14.39513761866008
H         8.71718635534282    5.58555050769782   15.04126179003204
H         9.32433321141298    3.92631536161319   15.03544482880897
C         7.79475012686016    4.32773383466121   13.56218122455471
H         8.06258485356934    3.45866720055086   12.95630903780956
H         6.97163602033415    4.03533985883122   14.22000392798876
C         7.35617894835730    5.46843091536743   12.64951204644989
H         7.04189363304742    6.31944281200721   13.26330599468372
H         6.49828939469978    5.15751321306989   12.04900441710131
B         7.97285969996093    7.11620084545114   10.73543169376466
H         7.46327019361702    8.02784946212086   11.53391115186142

