105
CSD_code = KAQBIO | q = 0 | S = 0 | Stoichiometry = C44H57N3Pd | MND = 4
Pd        2.84993022214414    2.08111616424775    4.41862178917855
N         2.48678492541818    2.48942766970586    2.43402084628074
N         1.69617421423093    0.19394234662491    4.25690048147383
N         3.11941279700122    1.88771289343054    6.39522126892431
C         1.60818930884885    1.83970117501428    1.69537099993254
C         0.90405406875805    0.68984712813697    2.05133963141919
H         0.24386472304405    0.30647086741020    1.28566397239774
C         1.02036291087179   -0.12301756428910    3.17912715516339
C         1.34889116270557    2.27572712855331    0.26585440511601
H         1.70055616011743    3.28323173712162    0.06654948753662
H         0.28561535269933    2.21662682510589    0.04372768436014
H         1.86908990079821    1.59571381738885   -0.40911424068157
C         0.31188066169211   -1.45872207231258    3.06464705330453
H         0.40055547053804   -2.04406915373747    3.97650211702663
H         0.73799401184643   -2.03383329301412    2.24307787512562
H        -0.74194607832064   -1.29867139972503    2.84101781301448
C         3.12824729217160    3.60811339764669    1.84683698237595
C         2.52483704299119    4.87738281024724    1.89259333914326
C         3.16378910177096    5.94716232013066    1.28421126365512
H         2.70614452131690    6.92513178299803    1.30758471859318
C         4.37631119380752    5.78439121021209    0.64177998959640
H         4.85771230454441    6.62849921756191    0.16969285243429
C         4.97120090274517    4.53831950429985    0.61127568883824
H         5.92284001885453    4.41859206169594    0.11513434329934
C         4.36038627913679    3.44024564993222    1.19846758564225
C         1.20901773895674    5.09460754969413    2.60622768556421
H         0.89683282771901    4.14096261262048    3.04877027943097
C         0.11801277251332    5.55219762038791    1.63548312129658
H        -0.03249247704706    4.81906784629151    0.84692820021833
H         0.38293973957131    6.50092826771435    1.17439735316644
H        -0.82332781826278    5.68308524806857    2.16596631600689
C         1.37252460984645    6.11074442258960    3.73900127099821
H         2.10121585051468    5.75001975307228    4.45972623356942
H         0.42542357611208    6.25960748343742    4.25345691291026
H         1.70838145583382    7.07141333382817    3.35641894493501
C         5.04028957596274    2.09103382040862    1.17135153875453
H         4.36080641177479    1.35586228264442    1.61771301388754
C         5.35509081974696    1.64529493557988   -0.25715073702538
H         4.45648231558901    1.66331944745230   -0.87034501965376
H         5.75022444045367    0.63108181293370   -0.25456251447738
H         6.09501776035043    2.29564831576035   -0.71756706846504
C         6.31165391362454    2.14262441857105    2.02240724183280
H         6.04808155356773    2.35830091216365    3.05625021276848
H         6.98409030640379    2.91978948038780    1.66645647681982
H         6.83757086646452    1.19091310220988    1.98481364371353
C         1.96229038658151   -0.78882523777562    5.22700654716597
C         1.21252713421648   -0.86389698485807    6.41301197682973
C         1.54213749393714   -1.82444230452484    7.35891456665925
H         0.95872882481245   -1.90298973350485    8.26387742182781
C         2.60025971943195   -2.69039352673839    7.15968531255675
H         2.85040097132124   -3.42543450338134    7.91103280114561
C         3.33122307284844   -2.62230314027543    5.98716626010135
H         4.14953627341497   -3.30943579349633    5.84076850974106
C         3.01508240382988   -1.70189388380792    5.00052436207924
C         3.79520635918236   -1.64892522206903    3.70346396075528
H         3.11720835615945   -1.31638225048899    2.91105262114235
C         4.92266357912569   -0.61539393124345    3.80517525285931
H         4.49901375538358    0.39731821046765    3.94086414326886
H         5.50956661534440   -0.62298114976094    2.88977120229109
H         5.58224244310979   -0.84980592626573    4.63981435782957
C         4.35663687794016   -3.00772037436965    3.28457675558633
H         3.58811034741497   -3.77616953120957    3.33727289236390
H         5.19213345562052   -3.30422986148539    3.91475224094514
H         4.71726128273450   -2.95331018759571    2.25915227901213
C         0.03894177500504    0.05967049849988    6.64539283119890
H         0.16388328746894    0.92959407311553    5.99210081980076
C        -1.27496441622749   -0.63032898118891    6.26597928568441
H        -1.29745040955970   -0.86711916214375    5.20678927791923
H        -2.11509367498203    0.02448921167636    6.48909545271716
H        -1.39608965657741   -1.55393338084618    6.82942354589920
C        -0.04560436090599    0.54646974395753    8.09369259159702
H         0.93170175130564    0.84893870878846    8.46291048908517
H        -0.43375487433899   -0.23308312782008    8.74550715123859
H        -0.71596410429743    1.40149123133082    8.15882593389195
C         4.25475946862166    1.07226899863218    6.79388140456223
H         5.11504763044759    1.40182708619808    6.19731086483683
H         4.01935590329477    0.04157584562720    6.50283550956172
C         4.62298340391915    1.10027884087025    8.25552910094506
C         4.08444981303271    0.16791448901978    9.13461777793456
H         3.39935937104338   -0.57913416333535    8.75961631335413
C         4.42352439343017    0.19284956586970   10.47589423724226
H         4.00105783969416   -0.53743384283775   11.15024444656585
C         5.30369354121542    1.14973890147200   10.95292407393187
H         5.57000772835617    1.16721961205006   11.99933705694716
C         5.84359405909543    2.08304520797124   10.08395894588011
H         6.53132743145846    2.83050216479901   10.45127202021177
C         5.50430834441093    2.05872096061779    8.74281082136636
H         5.92328731555694    2.78985562406541    8.06567014363420
C         2.48849224798200    2.55717451804867    7.28115656644336
H         2.83573307804338    2.52400415489003    8.31787759286158
C         1.31542997258052    3.39311583072847    7.09200046764859
C         0.57581132767010    3.44812817735963    5.90537253953186
H         0.90590058748867    2.87419033514914    5.02896281407594
C        -0.57302174738349    4.21308321206465    5.83365909194157
H        -1.14833921557378    4.22718712974554    4.91941038081665
C        -0.99525955024318    4.95462647995006    6.92574486359888
H        -1.89267289903345    5.55234742458120    6.86345330299587
C        -0.26058747591218    4.92532441216479    8.10084650909632
H        -0.58204494177679    5.50384252037021    8.95441117551226
C         0.87512407408042    4.14579534749453    8.18676847881466
H         1.43503870658292    4.11379367535864    9.11125726850996
C         4.08343127734684    3.73639760014879    4.70522540596069
H         4.24409284236598    4.37082727873396    3.83443173394916
H         5.07186126609703    3.39459749826276    5.04239027728886
H         3.67270482713352    4.36641674045717    5.50467976111357

