88
CSD_code = KAQBAG | q = 0 | S = 0 | Stoichiometry = C38H46N2OPd | MND = 4
O         0.10974585450446    5.03201898741057    3.72335865802744
Pd       -0.34524876874052    3.20052208854779    2.64255285995844
N         1.46234902306633    2.50670860968628    3.12064310575481
N        -2.08917791650193    3.96225211826412    2.17280115179669
C         2.34648803620110    3.17107617011786    3.79755761566668
H         3.31241925453736    2.66883078718441    3.93271116025197
C         2.30702958392484    4.45956169212681    4.39854624513421
C         3.47334376654866    4.86117563769298    5.08106058322568
H         4.30904928444720    4.17467931852116    5.12647766226331
C         3.55773223006082    6.08559403500131    5.67461543929959
H         4.45360672794056    6.38669295397237    6.19650782654957
C         2.46899772395517    6.96384625835692    5.60404833542641
H         2.57708187940380    7.92366464793928    6.08336187950312
C         1.30433062859849    6.64154338630341    4.95804222740639
C         1.18561112843272    5.35096994020883    4.32608480022644
C         0.12200926066485    7.60249050375703    4.89573878738679
C        -0.22981601085058    7.89231574338690    3.42903336664945
H         0.62824402758547    8.32047975224105    2.91396976423183
H        -1.05648927731335    8.59850123782570    3.37252845034129
H        -0.52093821524994    6.97805278035719    2.92034944605374
C         0.40742254074918    8.94255946940117    5.58091129415615
H         1.24260166722536    9.45562231902701    5.10914391327799
H         0.62144072839464    8.80814181514826    6.63891232686791
H        -0.47023249862564    9.58117042063424    5.49602890414449
C        -1.07980902439390    6.95825990933269    5.60138540666714
H        -1.32995516800975    6.01615504962370    5.12348871375400
H        -1.94584144071711    7.61627750361724    5.55322705602227
H        -0.84530512149939    6.76673445208729    6.64702594064274
C         1.92125396911755    1.25467669089590    2.63159308403221
C         2.51249065476587    1.19200249638010    1.36312405457530
C         3.06821903189652   -0.00968908483377    0.94979020761405
H         3.54550397051436   -0.07659600441942   -0.01510358797930
C         3.03106094539319   -1.12531299956477    1.76462821089810
H         3.48623559795797   -2.04842061717545    1.43673624648878
C         2.39830558419844   -1.06497111021405    2.99110152647164
H         2.35867181230150   -1.94880662776227    3.60817854028716
C         1.82724620644956    0.11720733476695    3.44033023804196
C         2.52889135568243    2.41653143261597    0.47537929154277
H         1.68554223093515    3.06091738392554    0.78147832574851
C         2.32985517871029    2.06545423628333   -0.99937038704016
H         1.48014462464414    1.39757062884002   -1.12085105598924
H         3.21333847427665    1.58794142501177   -1.41647960791987
H         2.13480241828750    2.97009459973951   -1.57050430671466
C         3.83356065808919    3.19647831919784    0.66171668725646
H         3.91895606935134    3.57428023971876    1.67816068954226
H         3.86820494323537    4.04229425209186   -0.02175771351676
H         4.68942653959167    2.55492068702528    0.45904886535695
C         1.10720926505411    0.19047194138339    4.76757329224732
H         0.43221007775453    1.05903722008378    4.73002140711742
C         2.10191565211215    0.39080308397533    5.91431166037083
H         2.62443218852055    1.33926480494367    5.81490505583699
H         2.83876835922936   -0.41028954106299    5.92044944634791
H         1.58091159088204    0.38739682337845    6.86966353162621
C         0.25539816722603   -1.05285278746610    5.02297835844128
H        -0.39965451785743   -1.24546973308924    4.17645349298326
H        -0.36041345820517   -0.90269162476640    5.90578237176087
H         0.87476601311855   -1.92993597001047    5.19312280642997
C        -0.89307392556445    1.47813287190175    1.66874808249569
H        -0.21512261106990    1.23525165666887    0.84600507684821
H        -1.90367104860290    1.54440524685633    1.24893472045834
H        -0.88572758649012    0.63621625299621    2.36942330615317
C        -2.39651861239128    4.43194102633574    1.02819705926569
H        -3.42748362803321    4.73929972617517    0.82057030129897
C        -1.44968414407945    4.61369640202836   -0.06182055339899
C        -0.12198981649106    4.98302312090973    0.18489454913843
H         0.21441072319429    5.16756525361148    1.20592639244773
C         0.73663843020952    5.22034613132821   -0.87417751028563
H         1.75056354173044    5.53733987446927   -0.67802523646617
C         0.30003093092210    5.06823487656543   -2.18072190231582
H         0.97589793164016    5.25007277251233   -3.00350277670866
C        -1.01204949032987    4.69916862982028   -2.43194374815883
H        -1.35649922651898    4.58676337324882   -3.44930206823972
C        -1.88546989328909    4.49059172250675   -1.38259765325045
H        -2.91163808850745    4.21456561524789   -1.57947556203286
C        -3.09180829124433    3.96162712820640    3.21416759488916
H        -4.10153750745579    4.05333815409819    2.78636960125359
H        -2.90085378203470    4.84712858079549    3.83756078360962
C        -2.99343722812258    2.72819539197944    4.07781618983312
C        -2.00725462046214    2.64418252085076    5.06190867239924
H        -1.32067710672209    3.47410258186546    5.22204366746914
C        -1.95690164745716    1.53850432198838    5.89549976701896
H        -1.21694950153722    1.49385295426793    6.68152051670040
C        -2.86445696531057    0.50296040676100    5.73796882816405
H        -2.82946686661090   -0.35472419646874    6.39361113770196
C        -3.82397189016399    0.57103309008987    4.74436795868042
H        -4.52854876684483   -0.23718181007543    4.61492118983304
C        -3.89201833959215    1.68256600297228    3.92104908830988
H        -4.65427448036636    1.73949523178487    3.15658887435904

