107
CSD_code = KAQDEL | q = 0 | S = 0 | Stoichiometry = C58H45NP2Ru | MND = 8
Ru        9.58394306980772    6.27257893494040   12.92027837453659
P         9.76114890363959    7.87051915678915   14.52326611447720
C         8.55582115834793    9.19807846128728   14.88581377531546
C         8.91086454985244   10.43884577789667   15.40428694690172
C         7.92684343417256   11.34215051057104   15.76434620384202
C         6.58869019895124   11.00973010977294   15.63335200076237
C         6.23163361099381    9.76791709568361   15.13494079138160
C         7.21035395703829    8.86695325551057   14.75997646468273
H         9.95116218977572   10.70686118775228   15.52348785831111
H         8.20757414302622   12.30865744921041   16.15827606888428
H         5.82641034703875   11.71769142622870   15.92433086134885
H         5.19010133510549    9.50077362909548   15.03557188731144
H         6.94923480155669    7.89677185221203   14.35669074397173
C        11.34627605150187    8.76026612404803   14.39036504978979
C        12.50862082471336    8.23768380917753   14.95178020284541
C        13.72903066590103    8.84680369952429   14.72396186027973
C        13.80559683104024    9.97642282932623   13.92481968902309
C        12.65677695202998   10.49080285801562   13.34518639860912
C        11.43698107606402    9.88063001154422   13.56791740327845
H        12.45168913162958    7.35380498694426   15.57354344903330
H        14.62520257008234    8.43778552295236   15.16879806173430
H        14.76027922907331   10.45034274439189   13.74945094658044
H        12.71261068792048   11.36449792440555   12.71188177087304
H        10.54028769601742   10.26826662161125   13.10329907083576
C         9.80319822030947    7.21874423263907   16.23440935642835
C         9.14536131618881    6.02276851031127   16.49492909530872
C         9.09401212688438    5.51893820995307   17.78203324384376
C         9.70068779514117    6.20910428842890   18.81802981009269
C        10.34256189325344    7.41175510247730   18.56656274843786
C        10.38686635831273    7.92329143285002   17.28299101833348
H         8.66705780917295    5.50142665271329   15.67410472631486
H         8.57884428312329    4.58964434566049   17.97714742968810
H         9.66896713617900    5.81537515796079   19.82339143633991
H        10.80685014611429    7.95549185316473   19.37676033164178
H        10.87909648135417    8.86700090540684   17.09309792981547
P         8.80006905450638    7.55028866414832   11.22242937349481
C         8.31003708132044    6.47587370581931    9.82310459403518
C         7.44828808675361    5.41836500274993   10.11532013213906
C         7.04588665469541    4.54640130352593    9.12157602539195
C         7.51646554104400    4.70468756568876    7.82730518446114
C         8.39465771141931    5.73422269439814    7.53713583016146
C         8.79169972190698    6.61807087002435    8.52686256003530
H         7.11591943295330    5.27836745757932   11.13778287196170
H         6.37121304004501    3.73609836752704    9.35822705198980
H         7.20829355146196    4.02035613376197    7.05048484132574
H         8.77746039275382    5.85153157531201    6.53342316912371
H         9.48293646423621    7.41224068773634    8.28364046691545
C         7.32948704172046    8.62048700686333   11.41785030462753
C         6.03392407927428    8.18907017519133   11.15796025004120
C         4.96300094840683    9.03915537411613   11.37483005646184
C         5.17211956173391   10.32284029076972   11.84913398949515
C         6.46041539286295   10.75942289708226   12.11018433393919
C         7.52969058299971    9.91036066863712   11.90391346472505
H         5.86510515561891    7.19401576416539   10.77401291213851
H         3.95666330872364    8.70331938696468   11.16811266448741
H         4.33251537607233   10.98206070219396   12.01276883692409
H         6.63084352063542   11.75972891132592   12.48044962600599
H         8.53648778715790   10.24761547088601   12.11068792877997
C         9.91805750560978    8.73589762362020   10.38968030016879
C        11.27356506152914    8.71899103990240   10.68608614765886
C        12.14498941888747    9.58536757588860   10.04925886331431
C        11.66336213422629   10.48061812252373    9.11034803052681
C        10.30957462040752   10.50571224355180    8.80887394325153
C         9.43919353666808    9.63864893066672    9.44116970832515
H        11.64106304806569    8.02805859084131   11.43221570684845
H        13.19814428207586    9.56308863087347   10.29005364547433
H        12.33936348404899   11.16009172964957    8.61219828991156
H         9.93316854360864   11.20365623236135    8.07503123896384
H         8.38388260367601    9.65629636583231    9.20475287415362
C         6.57886745446161    5.49770591600318   13.68552868198264
C         7.67857396095671    5.93578959061018   13.40611415852261
C         5.27204892588647    5.05293802536779   13.96254036998575
C         4.17771285083193    5.70377152370852   13.42353921487755
C         2.88214828558388    5.22810786590091   13.68828260833965
C         1.70662472709226    5.88806441099695   13.09886762408120
C         0.49521395170445    5.87417125851867   13.78644607837721
C        -0.62063594668594    6.49136419816297   13.25538387476573
C        -0.54581610109342    7.12602062696550   12.02586667504253
C         0.64921659373179    7.12939169890317   11.32630312129142
C         1.76839595904725    6.51483640548555   11.85688121732226
H         0.45204379985959    5.37086076412370   14.73993163072127
H        -1.55434470910848    6.47869136755522   13.79920395043925
H        -1.41789674405218    7.60956545274166   11.60981653603563
H         0.70710200541996    7.60928242037029   10.35913070261837
H         2.68796996196823    6.49814174137117   11.28942229048480
N         2.64562517521077    4.19226495327156   14.46786061709189
C         3.68664565940135    3.54170174181068   15.01876219348736
C         3.42221204300553    2.43130707200308   15.84882834897008
C         4.44860071825272    1.73448118967709   16.42300271802435
C         5.78117963464441    2.11018983633019   16.19746063378513
C         6.06912926907715    3.18247289112035   15.39754626671608
C         5.03684172358270    3.91907767214409   14.79372723142174
H         4.32830862582955    6.58719924224539   12.82157185412503
H         2.39115882468397    2.15603639691409   16.00923091365045
H         4.24019754363454    0.88416783377379   17.05705446036412
H         6.57762391749312    1.54422973215006   16.66005561395218
H         7.09099243218670    3.48496658052847   15.21363594428436
C        10.07571454416649    4.33457683743515   11.93004723881124
C        11.09712561175117    5.26887914889982   11.59217210103813
C        11.75333267859200    5.65936745016096   12.77363659859849
C        11.14821332663555    4.95557169328159   13.85779675577144
C        10.13613046098435    4.12314765016783   13.33197546929588
H         9.51434001605710    3.73736921819997   11.22281429056961
H        11.38696225733788    5.53244641110647   10.58148428078281
H        12.66360564398734    6.24155424571702   12.84034059889218
H        11.52021523919470    4.92849200032050   14.87548965160739
H         9.57983896693795    3.37461250328716   13.88150314697543

