113
CSD_code = KAQDIQ | q = 1 | S = 0 | Stoichiometry = C53H48BN8P2Ru(1+) | MND = 6
Ru        5.66569789112076    4.54451342572176    2.10144310026026
P         5.48887394406096    4.55606058719585    4.39021770766900
P         7.95075880083344    4.15902607073067    2.24770201459470
B         3.92576196675852    3.48091258425036   -0.36233315708864
H         3.28237028428233    3.10840700364253   -1.27613484562240
N         4.51670270138549    2.30799419081790    0.43624307446212
N         5.21989394674084    2.52089459019237    1.55418513349793
C         5.38480473678047    1.34132485740022    2.14391875521347
H         5.88852095733294    1.24211651185915    3.08696771894815
C         4.79417155344933    0.33700338929007    1.38189210793073
H         4.76735042998410   -0.71145908527658    1.59208494357076
C         4.24873133931853    1.00195425720253    0.30419076490707
H         3.69200626219465    0.63090766338858   -0.53127974128632
N         5.07108132920373    4.39382638752405   -0.79427600528294
N         5.85516202370025    4.98767978788588    0.10543630931758
C         6.70843501649311    5.76027383734113   -0.55473967750933
H         7.45457138802498    6.34436111484263   -0.05181247921439
C         6.47254876944367    5.66227694515920   -1.92401941311480
H         6.99472191960391    6.16234180505343   -2.71221455493835
C         5.41836705154688    4.78071089337154   -2.02968341716824
H         4.90260457558950    4.41414480241670   -2.89302170693171
N         3.08157857218450    4.27141401727405    0.65522301417031
N         3.62340078338436    4.75404216173270    1.77598347082237
C         2.65084428543020    5.31316488692678    2.48532419902766
H         2.83928355827094    5.78025477799779    3.43426932809272
C         1.44209031869407    5.18671694131039    1.80770366706374
H         0.48052973889358    5.53371669424516    2.12136552540409
C         1.76529271837632    4.51652007362310    0.64649753959796
H         1.14712273134770    4.20270073336838   -0.16916948272471
C         4.05512110851932    4.20149948727555    5.45772555171418
C         3.04487834076599    3.39011559236925    4.95190596471660
H         3.11156516724092    3.03035514803526    3.93289109384051
C         1.97035687982470    3.04381618606476    5.75191045643949
H         1.18573040016931    2.41570194942495    5.35846807499508
C         1.90717274697263    3.50104896576212    7.05801621536903
H         1.06798846999574    3.23445717345622    7.68189370789036
C         2.92685164982568    4.28856434880760    7.57280224444342
H         2.88288996278356    4.62911473968268    8.59612294459825
C         4.00776282962735    4.63056476438003    6.78259418469572
H         4.81404630319028    5.22807999132910    7.18571586647485
C         6.78987180331958    4.16999585211591    5.60614426595317
C         7.69653060772924    5.06811742772719    6.14987535712298
H         7.67444332930474    6.10847361361307    5.86949210797141
C         8.63108432117667    4.62547246973919    7.07212939324157
H         9.32323545304985    5.33185797406550    7.50465982610061
C         8.68306916582686    3.29150053368365    7.43519121666630
H         9.41893626163162    2.95324063966186    8.14815234844559
C         7.78360713146632    2.38778342171214    6.88853473801794
H         7.81896729459978    1.34754647003212    7.17457354008370
C         6.83730200985174    2.82755731903331    5.98556143267751
H         6.10586239808763    2.13820832691390    5.57764700844363
N         5.56621990083228    6.29608940179569    4.14441871641637
C         5.45918600391868    7.35932533014496    5.08456616913544
C         4.27413454486002    7.56609180639832    5.77901867673783
H         3.42261307521410    6.92853306494646    5.59197863386924
C         4.18334187484162    8.59869974790243    6.69710960494163
H         3.26016880771295    8.75274189004198    7.23409962050960
C         5.26495443298461    9.43423919630513    6.91690815773080
H         5.19060309775389   10.23821155076332    7.63204060065065
C         6.44100320734383    9.24159741976245    6.21007440343689
H         7.28383791590709    9.89605162509100    6.37059441205856
C         6.54286776983245    8.20888185841802    5.29578080596614
H         7.45888209363457    8.05771765292886    4.74003924249542
C         5.71188784860319    6.40010512867448    2.80959345332108
C         5.61742883184423    7.76355006016722    2.19939329278639
H         6.26864911197784    7.83466374600397    1.32798912970630
H         5.87502480123969    8.55244136761691    2.91010728963771
C         4.18804271246134    7.96166704517843    1.73034574137442
C         3.23670735007395    8.50679317714546    2.58248559414572
H         3.51675647083823    8.80594508233094    3.58252760959612
C         1.93504362082960    8.69272651150526    2.15087981149953
H         1.20772997712216    9.12780438677771    2.81932432233570
C         1.56895800151728    8.33089176459206    0.86604823188958
H         0.55398542486888    8.47622642936527    0.52989283582145
C         2.51500975539652    7.79579201274563    0.00869234313185
H         2.24126060656082    7.52469217921133   -0.99985876569588
C         3.81789645117514    7.61467977152938    0.43735014459345
H         4.55593354084444    7.22654963652823   -0.24785383646223
C         9.04546777780270    5.36807656630834    3.07764154107826
C         8.97147598670852    6.70884128067962    2.71139436032575
H         8.27719325935205    7.00557152347303    1.93853936955400
C         9.77487859056795    7.65244810717123    3.32486217060110
H         9.71397839953060    8.68965367551710    3.02811509287110
C        10.66213469292985    7.26340089842068    4.31665178344965
H        11.29223759279817    7.99755598928385    4.79518557515557
C        10.73771255204764    5.93200087602241    4.68975859390627
H        11.42989120880284    5.62528235211449    5.45933838147843
C         9.93078336107061    4.98700510958796    4.07995186139740
H         9.98894351490201    3.95313613581276    4.38479449215533
C         8.74200692926485    3.91983764062106    0.61772307549151
C         9.73035097927598    4.74175613681148    0.09136635806012
H        10.11964307140735    5.56614005357679    0.67297748076404
C        10.22554618592010    4.49721549563470   -1.17743240631579
H        10.99686536532327    5.13495123811439   -1.58241117991376
C         9.73721531109623    3.43976916852007   -1.92627135612163
H        10.12580586955733    3.25484361171999   -2.91587601855231
C         8.75208051408991    2.61676352557191   -1.40412893445721
H         8.37228575811233    1.78968330046311   -1.98489270859371
C         8.25450121050215    2.85779214893559   -0.13853418419657
H         7.48476218570858    2.21782067716357    0.27528433389201
N         8.31340408805446    2.72624541028419    3.04421038445501
H         7.51788780165459    2.31451392175472    3.51607756274681
C         9.33258429077892    1.79932037627887    2.77333692405736
C        10.56775809554576    2.20323536935547    2.28024195547941
H        10.75529099589603    3.25039983775643    2.10009508902848
C        11.55579555437411    1.26839138234867    2.03374358766029
H        12.50855834184318    1.59557765528506    1.64630309215572
C        11.33229248188280   -0.07423445147227    2.28653439162467
H        12.10565067820278   -0.80028286816326    2.09172576514514
C        10.11090880382164   -0.47748860430313    2.79855968148479
H         9.92814936466724   -1.52059962400096    3.00759795267936
C         9.11534631474805    0.45065039083634    3.03948584010199
H         8.16303241217251    0.12754254727797    3.43713241614788

