56
CSD_code = KAQGOZ | q = 1 | S = 0 | Stoichiometry = C22H27AgNO3S2(1+) | MND = 3
Ag       -0.10434160128268   19.61576588238586    5.51559509661062
S         1.16823729952023   21.46831168726589    4.12338579526415
S        -2.65261994176311   18.63984492390184    5.37615211937013
O         2.24434191431465   18.41291339124010    5.19894377781023
O        -0.83384077722247   19.43695777229207    3.02681312178242
O         0.15995872744298   17.44136911213968    6.91239184649187
N        -0.29430997930212   20.52675528597510    7.60723358732463
C         2.29519650192469   17.20635035642843    5.93766825923237
H         3.33863105084237   16.94116642190104    6.14528516816274
H         1.81196184827863   16.39068431031068    5.38489729980442
C         2.97428286020468   18.45929658467297    4.02879802095633
C         3.37659614290232   17.32426271821299    3.33481782875326
H         3.15723743650590   16.33861676810922    3.71136378807090
C         4.06661716453278   17.43882952208540    2.13899061976965
H         4.36735785036413   16.54478016326360    1.61599282984566
C         4.36945273299200   18.68474767214736    1.62401682086950
H         4.90896428236847   18.77655323232413    0.69535420554115
C         3.98691774582047   19.81661245429207    2.32080786982061
H         4.24694482620360   20.79280187663679    1.93885425791755
C         3.29908185571431   19.72843583512596    3.52492846753706
C         2.94251059337817   20.97417365135966    4.25606674963108
H         3.51783167176211   21.81864456509745    3.87797160982298
H         3.10189930716967   20.87285059324753    5.32901002436625
C         0.75408534966836   21.08895418266698    2.38767396953679
H        -0.03244886389124   21.80166152530744    2.14148131947274
H         1.63384916436212   21.28647045992665    1.77904799446151
C         0.25020051812310   19.67198171354104    2.15556904710999
H        -0.08374739708541   19.58331750009377    1.11062359398708
H         1.04899454173717   18.93582499917756    2.32387800235305
C        -1.48449070592064   18.19778269981495    2.85688933687248
H        -0.85394426040073   17.37582138410257    3.23221267526499
H        -1.68317769189553   18.01782258481510    1.79033103704294
C        -2.81067943216023   18.26017100942464    3.59743195362877
H        -3.35919294539104   17.32486372616205    3.50132804006427
H        -3.40960162429370   19.07887275307570    3.19977223241322
C        -2.41893424687713   16.94676783933905    6.07948376827548
H        -3.36032888278612   16.41753451992859    5.93675289623338
H        -1.61814888494352   16.46126943055810    5.52510998554903
C        -2.08229809284215   17.06479334206298    7.52845045181069
C        -3.06740091105765   16.95340949515098    8.49776459084045
H        -4.08492423821543   16.76521704628318    8.19164594718978
C        -2.75939311434155   17.06662849367309    9.84250398674520
H        -3.53509912033979   16.96565410332557   10.58480060639261
C        -1.45135851891826   17.30107412735328   10.22534733296920
H        -1.19739389857448   17.38367320488271   11.27103190880863
C        -0.45198375612148   17.42873323751284    9.27352979938511
H         0.55843789224339   17.62360469518716    9.59370974107069
C        -0.76109212035896   17.31842502920092    7.92517090890396
C         1.53754755754174   17.40144186943561    7.24277552779439
H         1.74269012063557   16.55435085392445    7.90736804043127
H         1.84852484818231   18.33978731982303    7.71765483659857
C        -0.94031035246326   20.73076503962511    8.53324196657694
C        -1.71931067945158   20.99301806134268    9.69477958267443
H        -2.15741197722484   20.06111300524565   10.05208755983065
H        -2.51375554733378   21.69624692280556    9.44838478778866
H        -1.08891224224455   21.42222304479980   10.47292740712647

