53
CSD_code = KAQHEQ | q = 0 | S = 0 | Stoichiometry = C18H24Cl2N4O2RuS2 | MND = 6
Ru        6.76703459531908    1.97442641997827    0.00036112236338
S         6.66043964635457    0.77421920017392    1.94122684988451
Cl        5.77320715391843    0.09684822442729   -1.01912351510433
O         6.91683208311375    1.48491995311006    3.18053510538634
N         8.55957038746548    1.22251035997336   -0.52032070002271
N         8.65028391362064    0.52463177450490   -1.66251366689813
H         7.79056580785873    0.25685013079011   -2.13997533848125
C         9.76722953047058    1.36659604105676   -0.01855600524854
H         9.92801824430144    1.92014207827726    0.88797048235297
C        10.70918502815291    0.72985807711070   -0.85898980493350
C        12.09698638526417    0.55408834528160   -0.84783419464343
H        12.69418206056935    0.96600264897939   -0.04945924509231
C        12.66307327858778   -0.15142160735983   -1.88070377584723
H        13.73159567285229   -0.30380804778395   -1.90170912893027
C        11.88622937970975   -0.68519361459842   -2.92065915551062
H        12.38049478439667   -1.23228657162302   -3.70919920124045
C        10.52061267276018   -0.52881986982311   -2.95968091897597
H         9.92043130109501   -0.93589241232737   -3.75744406735454
C         9.93518903812959    0.18503149116662   -1.91639242547513
C         7.71441168466266   -0.70954532530371    1.90923815899577
H         8.75064559254676   -0.38944483083071    1.87523357694714
H         7.44835500327424   -1.25731301604002    1.01091738865286
H         7.53286554990145   -1.29315846279782    2.80396841429184
C         5.07346454933971   -0.08880037745071    2.17673589070937
H         4.30531131108336    0.65532715011702    2.36186999154343
H         5.16726863460106   -0.74331282920942    3.03484570079602
H         4.86154361973372   -0.63955029180199    1.26696895237654
S         6.87363163804475    3.17452992467340   -1.94060142606480
Cl        7.76083621458826    3.85222895341941    1.01983570734901
O         6.61817759914912    2.46338567831986   -3.17987184712807
N         4.97448774290150    2.72648573780039    0.52085855237298
N         4.88371117921855    3.42489571025036    1.66272372959514
H         5.74344531073979    3.69294643515201    2.14002753007270
C         3.76688572956904    2.58239661381751    0.01896513591488
H         3.60613144598898    2.02840945594934   -0.88730053129776
C         2.82490447025156    3.21970786169135    0.85893487836496
C         1.43714385806544    3.39579259655567    0.84741669611487
H         0.84002199681819    2.98365831720392    0.04910024213656
C         0.87101378510603    4.10201229550034    1.87977819002258
H        -0.19746784795483    4.25472503742535    1.90045456501764
C         1.64778322414966    4.63616446892518    2.91959597265855
H         1.15348728633916    5.18379428476084    3.70774341259727
C         3.01335333496130    4.47946384757590    2.95898428860668
H         3.61345391177268    4.88679594933534    3.75667602439065
C         3.59883097611300    3.76492473405223    1.91618849161705
C         5.81894761730124    4.65780685708726   -1.90949426707186
H         4.78287770507813    4.33719099308851   -1.87568999809938
H         6.08444117578308    5.20604585823199   -1.01129375367220
H         6.00046933979538    5.24119946165734   -2.80438408228758
C         8.46016531351089    4.03844691582168   -2.17568153774448
H         9.22888650366168    3.29473953317099   -2.36007962318820
H         8.36642031528136    4.69251985338930   -3.03413409597217
H         8.67133326468023    4.58972798714488   -1.26606274484970

