44
CSD_code = KAQHUG | q = 0 | S = 0 | Stoichiometry = C13H21Cl2N3O2RuS2 | MND = 6
Ru       10.32397195282711    6.45192194368627    5.61552686136425
Cl        9.03003926519818    5.06274391031726    4.23889877650745
Cl       11.61326309886451    7.87243480090481    6.96434938450418
S        10.58342827876776    7.91008814150925    3.86107931292638
S         8.45791203272504    7.54892991587823    6.25938650721322
O        11.74134356543614    7.61218106883435    3.02624366333476
O         8.09074553248315    8.72435664583183    5.47966611222167
N        11.91645688390969    5.34434000579011    5.25506531874030
N        12.09262499371802    4.32723660272429    6.15368755609668
N        10.22064058602090    5.10778320929642    7.11040129956540
H         9.52867306166975    5.03058704404808    7.85328710959699
C        12.88191424628709    5.31038290961273    4.37822738411489
H        12.92156822863500    6.03283559030610    3.58193361697316
C        13.76138377285593    4.23537609181940    4.67304517070204
C        14.92623023110729    3.75478291097272    4.07718945241966
H        15.32405947666820    4.23627753920062    3.19863987309097
C        15.53879787239496    2.65997065632403    4.64449777191910
H        16.44244269715838    2.26250393278681    4.20857400425858
C        15.00879516327405    2.04896193819969    5.78189526060891
H        15.51372292857245    1.19195365508045    6.20095690089397
C        13.85521003790312    2.50752895319490    6.39041080567233
H        13.47952271685459    2.00726982472006    7.26597781091032
C        13.22916748627018    3.61176347104642    5.82815033275546
C        11.26880725351741    3.15070168362047    8.17811664800402
H        10.44734751970110    3.23295929534196    8.88588033073771
H        12.20769724652984    3.24277293967977    8.72161139145914
H        11.22631841930274    2.16994646503316    7.70702130036778
C        11.16009316837945    4.22506531889231    7.14787458189448
C         9.18158710818671    8.03675950428610    2.71583927167005
H         8.94264996013664    7.03044629980815    2.38596665174914
H         9.49340041805353    8.64922600049449    1.87810842225640
H         8.34823132897896    8.47269817412095    3.25339882324185
C        10.73859344761284    9.66514438017560    4.29335764489715
H        11.56026203974194    9.75264476228940    4.99722608612946
H         9.80828005810510    9.98028143276498    4.75026822881500
H        10.95421608506300   10.21303416360348    3.38375060517756
C         6.95523820152762    6.52476221222499    6.33878307492670
H         6.82214178703196    6.08570777591011    5.35464851604516
H         6.11800322137028    7.16339258453448    6.59421677671708
H         7.10029993823979    5.73928575736372    7.07097696693735
C         8.46889402838446    8.09932045578638    7.99537976217306
H         9.40492520568804    8.62888275767226    8.14956153241557
H         8.41980103503163    7.23532517693541    8.64731206174506
H         7.62329841981207    8.76023209737344    8.14451103624614

