53
CSD_code = KAQHIU | q = 0 | S = 0 | Stoichiometry = C18H24Cl2N4O2RuS2 | MND = 6
Ru        8.63857522770722    7.37954623343536   10.18339539196627
Cl        9.47286897578998    5.52650188628028   11.38389252628332
Cl        7.93361600346781    9.31180789448642    9.01382624814163
S        10.64751821861855    7.59647335656307    9.20683678599347
S         9.27947280849114    8.70442497660020   11.92368637451091
O        11.52696198345837    8.54731133473484    9.87371895627613
O         8.20833631630462    8.74730861673461   12.91079820924165
N         6.81899710833480    7.17357595444248   11.09230547130252
N         6.70397993240230    6.35525509496624   12.14429881294358
H         7.51116902412345    5.79515638172654   12.41606493938440
N         7.93559184608588    6.20441986260893    8.66641467796719
N         7.26779159270653    6.78327816518797    7.65506930866461
H         7.18265476373753    7.80552010961933    7.67377913136733
C         5.68355557054358    7.81658319518236   10.93042902949534
H         5.55674327928292    8.53455959020991   10.14156100501065
C         4.76877273868114    7.41571878464375   11.92937417864578
C         3.45011639496462    7.74255804069991   12.26349019260134
H         2.90145124153915    8.46666392330033   11.68162227495512
C         2.88921172093977    7.11919223998541   13.35003649650821
H         1.87456123453847    7.35191934091991   13.63677903694008
C         3.60446746497180    6.17990232695257   14.10986775481629
H         3.11791875496639    5.71979788110540   14.95697049573514
C         4.89973337372335    5.83623150706689   13.80511891872673
H         5.45155440189481    5.11735606219532   14.38943421704462
C         5.48075490989403    6.46526016002770   12.70520464058870
C         7.92258718611201    4.89929258575575    8.48939376281870
H         8.39639110561474    4.24105707336495    9.19411554828130
C         7.21626279810009    4.59082720832630    7.30428859892768
C         6.88404400345048    3.41700051839537    6.61907600016278
H         7.19157017516279    2.45591952064257    7.00018177420796
C         6.15869119663829    3.53319100814509    5.45934885689393
H         5.88504432835316    2.64626456217598    4.90817266511797
C         5.75693567514812    4.78382012822196    4.96461766488622
H         5.18666131148402    4.82055855891318    4.04874989228528
C         6.06860859090263    5.95479075913479    5.61427885420874
H         5.75977898566906    6.91666201686230    5.23756330136784
C         6.80360814351329    5.84931430659923    6.79358785409341
C        10.60148089073750    8.08664996228607    7.45281300010159
H        10.00938353472277    8.99459266562091    7.38686944629141
H        10.13452647104975    7.28981191741881    6.88419430814425
H        11.61692567579318    8.27080226374870    7.12273410774784
C        11.62128065720466    6.07612931421235    8.97772788982167
H        11.78279781492580    5.63628977739536    9.95656825241483
H        12.56726042286091    6.33971400450949    8.51975904898818
H        11.04726106748076    5.39667433601782    8.35749636679672
C         9.72678831496402   10.42871713016015   11.57167743715869
H         8.87561276018929   10.90262588517261   11.09344850643661
H        10.58387573277809   10.41565221682115   10.90819140559841
H         9.94847627290399   10.91712509642249   12.51286513093413
C        10.78225932499828    8.24178560787626   12.83257715666981
H        10.68404134986860    7.20012437291669   13.12204930465195
H        10.84310666921972    8.87345212645933   13.71066683817118
H        11.62866465297047    8.38003215676102   12.17071195169554

