72
CSD_code = KAQJIY | q = 0 | S = 0 | Stoichiometry = C36H24N6O5Zn | MND = 6
Zn        1.22255923903935   12.89528756425727   13.31960477277896
O         2.00536082007156   11.67453305555004   11.83052175611904
O         0.60728530115983    9.96220542191388   11.99326666795334
O         4.64902489868670   10.62489519046846   12.21506726655332
O         4.30950668900730   12.74157123916284   12.91296384890984
O         0.14212568350003   11.20826558321150   14.19688696268675
H         0.22576905411491   10.62149801580805   13.38318512774629
H         0.66312388384453   10.77705878897767   14.87922104690762
N         2.71460808735390   12.88276713111120   14.58027364548813
N         0.37012821177100   14.18021568542163   14.71080383059295
N        -0.29033413822336   13.02380060143326   11.79921446013583
N         1.82727211675310   14.64488037079696   12.19064773214637
N         4.05093717329086    9.54204995453519    8.78285252183190
N         3.58773546108653   12.28497426952451    8.37928024770176
C         2.61362724196227   13.89189847802291   15.44562921504300
C         3.98914361810591   12.31863826556121   14.28608841189253
H         3.91693056312774   11.21975802279499   14.22940127776368
C         5.10217192179057   12.73957181577515   15.18974180975809
H         6.04591294800035   12.24017756115410   15.03344512236485
C         4.93934287784223   13.69403542370844   16.10861505038680
H         5.75361012558639   13.99349198961624   16.75389556242824
C         3.66180692369316   14.33422562453021   16.27934847702847
C         3.43617273690441   15.33557152701439   17.23001534616494
H         4.26313261252647   15.64137831920824   17.85628635339223
C         2.20620792207866   15.92237501506865   17.38764712085667
H         2.04467316117982   16.68155189850808   18.13781680546260
C         1.13536793834534   15.53822466427016   16.55983928158075
C        -0.15541439541633   16.09816840773778   16.64322955300787
H        -0.35550253797607   16.84980311761411   17.39410590294527
C        -1.13295934409236   15.68652037409716   15.77553724161835
H        -2.13055009260484   16.09561797059766   15.82126739536181
C        -0.81844345385642   14.72720942361325   14.80537292671680
H        -1.55654711805114   14.39987481116633   14.08757510448354
C         1.33803186828364   14.53834750094750   15.56828853992160
C         0.21907341541353   13.66768079043657   10.73940494131227
C        -1.27395305356951   12.17514087083531   11.61204871101770
H        -1.65928257011855   11.69033805305634   12.49660788533870
C        -1.80804300262924   11.89422944981937   10.34926169877719
H        -2.59771076977868   11.16626761282562   10.25360468155450
C        -1.30509621213241   12.54838461100608    9.25248318416434
H        -1.68767257461418   12.35905775054371    8.25983797738281
C        -0.27297146843689   13.48626157463050    9.42977962934271
C         0.27667590376183   14.24961837759814    8.36012343448753
H        -0.11003482227363   14.08359163826318    7.36563532533713
C         1.24399353604504   15.17041439914319    8.58463271402585
H         1.64019521004998   15.76732270373087    7.77659942139017
C         1.78215952295160   15.36238508916770    9.88866528662528
C         2.79167850588911   16.29542748824766   10.17591496997707
H         3.15993803312869   16.93938788355964    9.39010969718582
C         3.29252633753838   16.36928840566940   11.45287478342745
H         4.06828694749039   17.07375461518009   11.70906178625988
C         2.79413820802932   15.49840094862445   12.42714160940696
H         3.19303194929044   15.50485803863670   13.43159343323582
C         1.30570964007743   14.57583378205728   10.96031634302391
C         3.37461696029000   10.28955747044591    9.64882158118185
C         2.41294048667129    9.74590634102745   10.50588988816884
C         2.18670169610893    8.37332670211182   10.43398025438540
H         1.44413247946997    7.94164509785327   11.08945748226832
C         2.90519848564138    7.59962010743176    9.54303141371622
H         2.75397510349344    6.53312345073128    9.47732006763755
C         3.83266476548677    8.24285818653711    8.73837478676115
H         4.43362384098729    7.69778461946311    8.02137279942721
C         3.75966760400127   11.71895134528488    9.56581086869731
C         4.38357443270435   12.39456081524745   10.62406388861898
C         4.90578182639240   13.65691147231185   10.38135109987416
H         5.41665681783346   14.18251469947133   11.17477710485030
C         4.77869814188632   14.21095715618188    9.11816319255668
H         5.21099680597471   15.17178146763506    8.88408196712021
C         4.07585066418940   13.49244979025256    8.16543935079043
H         3.90675748813458   13.88807742269354    7.17173897804827
C         1.61304478560115   10.51908491683329   11.51573218745180
C         4.44855688011181   11.79200177229694   11.98845918943409

