146
CSD_code = KAQKEU | q = 0 | S = 0 | Stoichiometry = C65H69ClN2O6P2Ru | MND = 6
Ru        5.28281744460983    9.18310870656594   15.36718435427948
Cl        3.51131138241933   10.83868000556006   14.94011597430649
P         5.18800541586828    7.94071024641117   13.47789939719802
P         4.02907329951120    7.67442420864650   16.50344555818610
O        -0.12774269670382    5.35398395472884   12.94835111363047
O         1.34190438228950    4.44409814406470   14.46962039894890
O         3.93226282675553    3.15068318924683   13.85722548400270
O         4.90296726538253    1.87963538781509   15.51119936818879
O        11.38127881467416   14.44129521308952   13.48281209434831
O         9.44810068324663    5.78717888456508   16.89894449025519
N         6.53186336787004   10.68270445016332   14.57165330147927
N         5.54235687084174   10.51117711909261   17.08517493181193
C         5.37515577324614    8.86518981623512   11.90244507970908
C         4.90738823549323   10.17518226919004   11.86205694276551
C         5.02426889800187   10.94147677855907   10.71249581780130
C         4.52374044368164   12.35411513954721   10.68299535998395
C         5.62421681625265   10.37763750846983    9.59363290180546
C         6.08760278297804    9.06865025605196    9.60703486418032
C         6.69781343087847    8.46803371713216    8.37560004051737
C         5.95821786485013    8.31596613784269   10.76613387053672
C         6.44316565172650    6.65249366533338   13.15192002764926
C         7.76213353177593    7.07325209582288   13.26950722311574
C         8.81835237080656    6.20620714276717   13.03520383739027
C        10.23043877622877    6.67841430355766   13.20319082217809
C         8.52915185506955    4.90127032330320   12.66223183728793
C         7.21767247256066    4.47065185453511   12.49630101814931
C         6.94386254577279    3.06393221983561   12.05351700108382
C         6.17525431950816    5.35356510565079   12.74155364575083
C         3.59522068488361    7.08545712179290   13.21882964055442
C         2.69354030067784    7.61880948511911   12.30337028402659
C         1.41044272041149    7.11521837149376   12.12638480145973
C         1.05659157217601    6.04051458024000   12.90357371818534
C         0.04317356044954    4.35720369251711   13.93081689897718
C         1.94732231622725    5.49112570435347   13.82096618378091
C         3.21463317560280    5.99834156744416   14.03464202114082
C         4.02494773600802    5.31317137472862   15.06086123045630
C         4.24223253673374    3.95673585894249   14.92543732755118
C         4.24018998857278    1.83901755907237   14.26678057446256
C         4.83404716020786    3.18534963581461   15.92219898580306
C         5.21373330542601    3.74073618194845   17.11804255679374
C         4.98888536634693    5.10564053083746   17.27672380766190
C         4.41505894513366    5.89087145297539   16.28650203462269
C         2.21132228884775    7.45152123956691   16.36908861115374
C         1.44654103674784    8.25134947570927   15.53319557157622
C         0.08206035248458    8.03805626939249   15.40495390000156
C        -0.74212725204253    8.87972205012943   14.47950755382528
C        -0.50834338618725    7.01442965156012   16.13573222158663
C         0.23869793480432    6.20599267113841   16.98207884489707
C        -0.39785901598461    5.09054100309006   17.75842185160283
C         1.60255424437262    6.42902452843764   17.09015152079590
C         4.19669316884051    7.91964046842064   18.30964905754131
C         3.14201690807007    8.35465736467371   19.09996853266514
C         3.32880923924332    8.61674175622827   20.45360495302657
C         2.17142221159895    9.07784741819047   21.28743714211466
C         4.58538176487799    8.43283009974979   21.00949355489027
C         5.66578571391410    8.02581017760793   20.23192399541331
C         7.01497813315928    7.81870147262935   20.85248319604058
C         5.46621063619006    7.79974278197909   18.87954639950020
C         7.47731993611198   10.94682649308460   15.68491112697765
C         8.54165329683351   11.89310400045181   15.16025459791328
C         9.52232406499103   11.37767492377587   14.31879459989862
C        10.48645054551400   12.18270394488549   13.74094078062885
C        10.48285637317104   13.55146752059319   13.98463163782555
C        12.41690420070823   13.96006790870136   12.66132145806845
C         9.48203122853092   14.08384294677799   14.79645203505335
C         8.52578097832221   13.26974258418037   15.36603654164199
C         8.00728995258256    9.57667935962370   16.08518892218251
C         9.29226045020447    9.38239816464336   16.57333224883117
C         9.73865866646159    8.10828100239593   16.85886478657043
C         8.89641508061132    7.01713210360884   16.64421695266607
C         8.70181783035658    4.64338130204116   16.56913055726889
C         7.59564596428780    7.22637200272407   16.20591492221386
C         7.11509363265628    8.50341314571497   15.92904303590334
C         6.57593057179745   11.51685865641417   16.82023638300512
C         7.34127287343725   11.96726457621943   18.08797402570269
C         6.58910924591076   13.11408738103201   18.76653253734757
C         7.57832050852037   10.85206167117033   19.10673053262852
H         7.05001984055429   10.45209308690855   13.72158177397399
H         5.96752907327331   11.51544068868538   14.36874616694790
H         4.63991083098500   10.95559716811812   17.26545419707996
H         5.79009342316800    9.94944329000575   17.89920826465885
H         4.41875052492657   10.58668515000854   12.73561236450652
H         5.36071131900124   13.05185080494327   10.63992135496719
H         3.93833830706398   12.56954008600528   11.57302630525162
H         3.90436436181704   12.52409023333079    9.80404183969701
H         5.72618506085515   10.96709407520077    8.69237598394209
H         5.91290172274181    8.11126264380853    7.70806276632039
H         7.33392477336706    7.62415469262672    8.63165109622517
H         7.28691997370793    9.20585859360959    7.83479905983847
H         6.31389136933760    7.29614319425823   10.77898806269884
H         7.96050521072846    8.09900588382615   13.55161544760639
H        10.41725521037535    6.91817583055981   14.24988918724329
H        10.40175102589965    7.58184319498183   12.61932276770469
H        10.93966354090013    5.91701314283402   12.88828700649568
H         9.33828178374341    4.20644653334899   12.48085646979894
H         7.53713838516029    2.81555949695895   11.17450710329540
H         5.89090615729982    2.93628696917101   11.81470751491953
H         7.21288708077365    2.36260340776913   12.84428296296892
H         5.15589200333949    5.03161364973789   12.58964224591960
H         2.99824706576472    8.46560845504493   11.70824571119995
H         0.72453357170091    7.54871934800462   11.41831213210778
H        -0.69830936720003    4.50225080161050   14.73257108824615
H        -0.10175883426135    3.36377859359568   13.47442400128989
H         4.88796770917541    1.35742878052496   13.52049926120680
H         3.30723547614782    1.25521233919027   14.36724183886648
H         5.64205236636008    3.14062493060474   17.90388110842272
H         5.24745945900855    5.55573302414070   18.22210708945302
H         1.92257389154024    9.04085589544810   14.97237512562850
H        -1.12633436401870    8.26979835802529   13.66191363424573
H        -0.14224165850771    9.68365006255810   14.06202466651784
H        -1.59354398594007    9.31014312547584   15.00539831819790
H        -1.57315598730949    6.84465845579360   16.03852057853915
H         0.01039132345839    4.13245600136549   17.43653176305580
H        -1.47616132382989    5.07727213174714   17.61590120149776
H        -0.18872280896197    5.19939838297170   18.82186891079544
H         2.19819900967326    5.80063599151792   17.73947424701316
H         2.16293632079177    8.49294463346648   18.66390931904105
H         2.49039618218418    9.33182619914960   22.29526146485884
H         1.41791673137073    8.29332607812790   21.34936937038039
H         1.70187540231087    9.95053738370707   20.83620412931166
H         4.73493230798544    8.61716365821341   22.06457586499197
H         7.00698428955342    6.91472175360997   21.46174871658494
H         7.27879910444057    8.65217981351996   21.50079835000626
H         7.78052940922257    7.70909962816384   20.08830415558710
H         6.30297755298187    7.52978199145035   18.24791553221166
H         9.54403780990141   10.31642330770617   14.11583798840329
H        11.22986840082906   11.73072962520645   13.10349281304217
H        13.05030830391520   13.24190713007082   13.19207017447370
H        13.00995808315919   14.83283168714870   12.39303628462951
H        12.02521406384481   13.49582353511833   11.75030810493967
H         9.47212958742742   15.14899731104633   14.96502948605106
H         7.76323957061346   13.73052963901761   15.97292957572460
H         9.95284319299619   10.22618485920621   16.72249105901888
H        10.73705306687117    7.93370344560529   17.22818599813528
H         7.80580429859816    4.55026055239642   17.19094282074104
H         9.36172834209750    3.79735132316144   16.75814666502088
H         8.40352715224649    4.64690461193513   15.51534142430384
H         6.93627333305795    6.38500704000861   16.05011983764956
H         6.06690547408340   12.39756783264055   16.40302088105264
H         8.31978716228618   12.33442845883664   17.76445849673473
H         5.59205251360749   12.79406690637273   19.06475177249315
H         6.48913079164048   13.97119087610881   18.10360534822975
H         7.12117664545793   13.43817218017457   19.65774560490826
H         8.30296075789984   11.19167900763320   19.84337728326397
H         7.97660508688663    9.96005502816310   18.63147276352438
H         6.66346296575530   10.60089893096174   19.64165668536699

