100
CSD_code = KAQLAQ | q = 0 | S = 0 | Stoichiometry = C39H49AuBN6PS3 | MND = 3
Au       17.96032751076337    7.18367540613342   12.83202950656471
S        19.93563370843911    6.28370096304950   13.85032955824594
S        19.12171602563974    9.45012947400591   11.58760246982984
S        17.10453609874686   10.26773264270904   16.71783517970332
P        15.83778917255809    7.61987643306458   12.11439005403592
N        22.17457227875325    7.62469866435268   13.07136872684207
N        20.71532299577993    8.85919764391756   14.15490981751516
N        19.68263932436057    9.77034548200728   16.24266101748569
N        19.27013180458112   10.19876388362493   18.37062024344968
N        19.08784327340123   10.69903845077225   13.97094457935553
N        18.66341387490317   12.04214939785199   12.27592363252041
C        20.95815157530907    7.63364405394501   13.66926547442818
C        22.69110099071827    8.89151019751843   13.17846228864189
H        23.64303066126370    9.17320168143001   12.78558620916935
C        21.78801954467564    9.64536464458846   13.84159129662133
H        21.81768435873960   10.68249538350859   14.10776877648968
C        18.70324718210622   10.06740829446601   17.13314544651629
C        20.86507615404693    9.70424202357615   16.93146105347263
H        21.79138810116876    9.46708620941813   16.44996021392677
C        20.61972297899120    9.96552475332076   18.23201573820045
H        21.30594203678788    9.99899540048199   19.04986984304581
C        18.93840074248241   10.75755064570498   12.63372996377604
C        18.88865151346131   11.95536124744462   14.46531151499798
H        18.93471889621487   12.16365200041261   15.51330581196636
C        18.62632578232810   12.78509315541401   13.43311202944249
H        18.41582509205881   13.83150812898780   13.45100943341921
C        22.80113253029476    6.49989818086678   12.36734358352884
C        21.87314817090959    6.04846146240291   11.23660516101640
H        20.95987830620674    5.62251454448237   11.63968462567969
H        22.36931601567787    5.29663157054330   10.62950406220758
H        21.60887817050611    6.89569663019943   10.60681995783603
C        23.05631523258048    5.36750590716719   13.36481598164194
H        22.12288084421474    5.03539479518335   13.80798409564003
H        23.72045979808042    5.70498410589066   14.15813676405980
H        23.51948765876140    4.52778085067955   12.85468494811593
C        24.13581150595979    6.94094500562708   11.76348202829544
H        24.83277288042038    7.26676417964166   12.53263709607907
H        23.99474832858863    7.73768186566580   11.03672496599396
H        24.57973021728814    6.09230956975161   11.24953640154329
C        18.56361573561744   10.50938117335744   19.61404020336046
C        17.51622737587438    9.42293178365763   19.87352698078116
H        16.80216321973448    9.39089177704768   19.05544644713227
H        16.98218248017936    9.63428427947950   20.79569058011379
H        17.99519762408947    8.44940518005560   19.95779936452445
C        19.54656785282586   10.54632541019407   20.78540376028572
H        20.30307846078380   11.31542566081971   20.64374407817658
H        20.03148456669570    9.58238682808894   20.92346926366681
H        18.99590129228503   10.77940049500242   21.69319968809977
C        17.89826342743659   11.88223327311369   19.47463777809526
H        17.19135952389882   11.86871197148485   18.64952074520325
H        18.64759640121133   12.64901527508933   19.28546581806904
H        17.36488066042214   12.13059133244126   20.38769787439353
C        18.56985976757414   12.57330507431452   10.91338022373698
C        18.25568017351037   14.06976261135750   10.95389920913957
H        19.05437821972120   14.63236556749266   11.43216042113559
H        17.31777849313278   14.25742217655133   11.47175394682434
H        18.15581497053015   14.43085995689111    9.93346626154512
C        19.91864044331445   12.35984318732569   10.21825718135400
H        20.71313190964019   12.85783985441283   10.77112458800970
H        19.88523842584166   12.76508667399629    9.21095803912062
H        20.14264844417827   11.29842781271994   10.16165670891321
C        17.45033677683889   11.86046614932634   10.15368574426662
H        17.63554768143172   10.79177447381122   10.12301551950878
H        17.40185871228014   12.23460137807953    9.13481101008125
H        16.49449858719063   12.03414815350704   10.64094760046801
C        14.52856453523702    6.71753116502698   12.98738933096236
C        13.24517671045167    7.23011172076721   13.14795496152727
H        13.00254066733137    8.20902240317493   12.75714562744301
C        12.28956095230337    6.48463203909298   13.81364231650131
H        11.29315779330238    6.88225045798996   13.94182233503338
C        12.60766193907374    5.23385162500650   14.31894054949652
H        11.85734643951576    4.65772540347288   14.84003261163930
C        13.88735514617611    4.72479341807401   14.16522683241793
H        14.13628953166261    3.75317741056650   14.56617895009283
C        14.84906432135751    5.46647691618091   13.50479027661923
H        15.85861011065543    5.09098971235749   13.38802321550835
C        15.53014486329874    7.26505176114079   10.36397204106520
C        16.48455408960924    7.74382143649998    9.46815048196178
H        17.34167544142844    8.28359383534145    9.85021283717967
C        16.33294191726585    7.51862721940086    8.11403377572835
H        17.06956933817095    7.89473982468473    7.41967325603944
C        15.23971983109898    6.80242697770840    7.65001313621538
H        15.12232364214847    6.62271720265067    6.59140340076730
C        14.30156062713968    6.30891679785058    8.54156886691764
H        13.45543991935679    5.74366881911657    8.17838673771700
C        14.44163066116881    6.53586175196038    9.89974675552664
H        13.71056925180052    6.14921619333088   10.59629196050206
C        15.33581863726620    9.35112544110516   12.29344276439745
C        14.58489024521354   10.03445778098127   11.34231371573914
H        14.28866962362042    9.54141781774331   10.42618901697576
C        14.22500409381057   11.35018343045082   11.57610464347141
H        13.63692869912905   11.88176501187285   10.84083354581100
C        14.61744876365761   11.98715448156774   12.74402236294780
H        14.33519776550870   13.01633594688908   12.91494589483419
C        15.36957178066455   11.30761043689475   13.68832737693146
H        15.68014790918271   11.78736942546359   14.60384569412611
C        15.72621235757521    9.99153617766837   13.46511943844161
H        16.30647360722489    9.46055720144270   14.20705731908916
B        19.42340046381393    9.42304789644728   14.77979957064913
H        18.53087575979585    8.63763242066539   14.69596981240909

