103
CSD_code = KAQLOE | q = 0 | S = 0 | Stoichiometry = C54H46N2Pt | MND = 4
Pt        0.42966481826453    1.50126668983881    7.81875995614690
N         1.04986360291407    0.59992962516100    9.52507030021858
N         1.82528973502324    0.27377822913968    7.00973919982097
C         0.64715109244219    0.79100010953103   10.77378035218848
H        -0.13052115620578    1.53024367646809   10.89638999380488
C         1.16270749283125    0.10599758869005   11.86928209413180
C         2.16408882663972   -0.84906188838136   11.64497438883048
C         2.61717821743976   -1.06630324624253   10.31941680026982
C         3.63315463099832   -1.99929812844894    9.97489619059196
H         4.08093691109994   -2.57376837211544   10.77207624147642
C         4.03156475853862   -2.16471997361914    8.68761719415539
H         4.80465570859274   -2.87444245633091    8.43313686611063
C         3.44685752627129   -1.41343662563926    7.63177599408378
C         3.82076347979974   -1.54437733050634    6.27095427777171
C         3.16800562990142   -0.75737214527621    5.31158301394393
C         2.18656715703252    0.12881304618624    5.74232673497185
H         1.66118335886378    0.75955281656836    5.04076977334251
C         2.43836417070665   -0.48463788468854    7.94361960855337
C         2.02189610052915   -0.30907244003394    9.29534012179719
C         0.67305721971992    0.35238992249719   13.26767385614402
H         1.54494022934068    0.42046103767850   13.92673865237721
H         0.10736529738046   -0.52798085148584   13.59273728842774
C        -0.18960713325723    1.59980500535811   13.44199985895934
H        -1.10912252575506    1.50595849915671   12.86109844243650
H         0.35475996038646    2.47242708862753   13.07441797052753
C        -0.56062670441120    1.82400015191153   14.90597520707877
H         0.34900320262470    1.91489291793722   15.50554563117058
H        -1.11583344497345    0.95850014793777   15.27632636287768
C        -1.40910365796956    3.08096474025919   15.08239568027394
H        -0.84226499838381    3.94654343470535   14.73321053906054
H        -2.30354098636159    3.00237788894195   14.46053853536975
C        -1.81600819094316    3.29480797770992   16.53469216448898
H        -2.39960757520938    2.45083061384764   16.89625157080393
H        -2.41856981938449    4.19442676842808   16.63352906050460
H        -0.93708577345165    3.39897328097918   17.16776909546166
C         2.71089816320518   -1.58325778124780   12.70881597639443
C         3.17665328543759   -2.22018084775779   13.62606663382297
C         3.71682027946718   -2.96222568462468   14.69418013745774
C         3.23134229320882   -2.77921946004539   15.99153268585907
H         2.44050933384801   -2.06412733163641   16.16566306936170
C         3.76207694540131   -3.51077856513554   17.03516406259641
H         3.38463435425415   -3.36768178243775   18.03697668261490
C         4.77611189429182   -4.42706778497687   16.80156157932666
H         5.18796978817362   -4.99692544519132   17.62096797689662
C         5.26156762466132   -4.61220303349197   15.51621343645062
H         6.05165017563552   -5.32621103904021   15.33531116554661
C         4.73875682998349   -3.88682007178596   14.46428209607023
H         5.11313767308723   -4.02699711175507   13.46049235800758
C         4.82910611942496   -2.44378854198943    5.89161457416573
C         5.70068654483080   -3.20863742032376    5.54619493278099
C         6.71266233530408   -4.09700722366511    5.13403164416773
C         7.36087184907373   -4.91389421053991    6.06357653087619
H         7.07945249287884   -4.86128825431887    7.10539474299879
C         8.35262612586506   -5.77941027474025    5.64688325237378
H         8.85208446915954   -6.40999657990122    6.36775816382398
C         8.70869810596200   -5.84135710031174    4.30844515103342
H         9.48489749571690   -6.51984470351380    3.98756561966954
C         8.06869555960250   -5.03249881072306    3.38182625026316
H         8.34717229223153   -5.08133358475929    2.33940934387672
C         7.07539294342067   -4.16321222112363    3.78611400306244
H         6.57266179070902   -3.52910087376496    3.07035118670899
C         3.54958278002333   -0.88495536345162    3.86462652330370
H         4.56635635005068   -0.49478628796184    3.74341032378417
H         3.59647763841701   -1.95091326298070    3.61784738356390
C         2.61774144095999   -0.18048494896522    2.88189360106771
H         2.62475725540980    0.89622893278879    3.06214214906870
H         1.59645478071589   -0.53974704122596    3.02550849016601
C         3.03626598161640   -0.43468977119323    1.43578471329813
H         4.05130692139690   -0.06043061938932    1.28037539480297
H         3.04681759234165   -1.51033980440546    1.24066645414308
C         2.09023563806001    0.24710517852068    0.45051793989064
H         2.05571332469260    1.31752425838462    0.66467492966552
H         1.08190611500713   -0.14683715723610    0.59269055605426
C         2.52002531742892    0.03024514059311   -0.99471330023295
H         3.51607148588481    0.43470750230904   -1.16201785464646
H         1.83136845950686    0.52452828663569   -1.67546557305456
H         2.53743187214776   -1.03109890681660   -1.23435065654666
C        -0.04191094806768    2.28359057306478    6.09255961434843
C        -0.16458808210702    2.62283521083386    4.93167551177643
C        -0.28206153314665    3.01374359344229    3.57635777511016
C        -0.64845637019597    2.08080962103270    2.60332866304570
H        -0.87305407232724    1.06663846730801    2.90292914577510
C        -0.73153904746651    2.45448669868929    1.27654209458147
H        -1.02045856397922    1.72810538586795    0.52976539426435
C        -0.44515803974036    3.75636731810341    0.89795614170456
H        -0.50807314538657    4.04459732204176   -0.14152056784924
C        -0.08096487143568    4.68791654016172    1.85770201030052
H         0.13923346182595    5.70488386542724    1.56439381965857
C         0.00006735973031    4.32498750925121    3.18758786237506
H         0.28170033950469    5.04661807892346    3.94058218400146
C        -0.88965058450191    2.60857922240965    8.74019567718771
C        -1.64379621861734    3.19784194133956    9.48941303905804
C        -2.52843113630668    3.86860432311003   10.36764368173753
C        -3.90516869019971    3.85519385225575   10.13472372229323
H        -4.28414262387794    3.34488150645849    9.26141230226609
C        -4.76430890215061    4.48663695241653   11.01211512984071
H        -5.82887626240551    4.47218889750825   10.82508484170272
C        -4.26897610808865    5.14103586130443   12.12920855897772
H        -4.94457243993945    5.63515301544103   12.81259457781433
C        -2.90383678076953    5.16255735111311   12.36502348421124
H        -2.51561277088233    5.67638251390221   13.23324881401754
C        -2.03716545121331    4.52989018816636   11.49566088684164
H        -0.97137539779380    4.54751387891695   11.67522228625617

