49
CSD_code = KAQQID | q = -1 | S = 0 | Stoichiometry = C19H22BN6Pd(1-) | MND = 4
Pd        6.33973876966199    3.30625719397085    8.52156636725132
N         6.55949454722969    4.58011951317273    6.78296448290782
N         5.62935043945504    5.45791450677257    6.40802948847035
N         5.32633375466303    5.03873428449774    9.37799112981312
N         4.61202705997004    5.89783326572242    8.65480262013186
N         3.33225442542886    4.55675882115273    6.94675812685746
N         2.13883142047453    4.75474051978702    6.37928264061783
C         7.41962502403999    1.68854654045713    7.87781226894262
H         6.74837375928333    0.86826620558436    7.56747442326939
H         8.08876679418263    1.90356483872372    7.02742301868544
C         8.25078093867366    1.22127863064174    9.08786260773806
C         9.29402010633730    2.30190667156204    9.42105569897523
H         8.77754053118276    3.26983062223856    9.51668124368063
H        10.03611286076289    2.37512982004077    8.62567920210247
H         9.80435049050091    2.07438973352889   10.35765730524744
C         8.95947091894478   -0.10918679324245    8.81090109194575
H         9.63745151013225   -0.37416577932704    9.62189794283310
H         9.54123662985671   -0.03688591696753    7.89208236111682
H         8.22922009812359   -0.90797628410521    8.69345611211717
C         7.25410099640964    1.15694478388390   10.22381337171716
C         7.29801698918012    0.28161077362205   11.29417621461825
H         8.10540729225398   -0.43400767691689   11.39244225113064
C         6.29424922863154    0.30822306959205   12.25165423007500
H         6.32758241720481   -0.37671301669135   13.09124364766815
C         5.24535433005168    1.19961172809073   12.12409576542157
H         4.45216263382166    1.20705979884075   12.86367599801956
C         5.20338401835738    2.08283375671368   11.05293706986374
H         4.36108484951038    2.76529519981311   10.97124584400689
C         6.21324220473840    2.09357715138583   10.09593294777104
C         5.41347091781515    5.51596454140856   10.60995588173913
H         5.95108381900895    4.98174457352149   11.37371573176142
C         4.72390506892645    6.72666370481279   10.69695423341108
H         4.60596442983156    7.35760036028146   11.55612066092790
C         4.23072198916204    6.92773881244923    9.42486593250467
H         3.63796021446784    7.72722779788381    9.02734061996555
C         1.53586588252924    3.57953080287020    6.34598860277280
H         0.54956198378104    3.48580318697697    5.92811175289559
C         2.34893019027199    2.58646109577894    6.90280938190891
H         2.13491426141874    1.54136688256205    7.01685371341855
C         3.49286167807303    3.25898015016264    7.27539083339423
H         4.40839272457099    2.88547956878858    7.75422745881388
C         6.03703976412610    6.10466130711633    5.30638668167340
H         5.42277294492440    6.85086717178171    4.84354070592033
C         7.28330818374052    5.63004778334357    4.95662177070016
H         7.89504956042910    5.93167462153075    4.12897414667725
C         7.56658288652209    4.66884016550626    5.92750888241048
H         8.44519177226215    4.05847724795948    6.03515134567594
B         4.29767851811301    5.72283556193879    7.15226120308611
H         3.81207817097976    6.72304270094862    6.73492498727118

