59
CSD_code = KAQTAX | q = 0 | S = 0 | Stoichiometry = C24H31IrOP2 | MND = 6
Ir        4.40798474663459    3.89401658669456    9.50659670614512
P         3.67168189013020    5.55649865054380    8.00236769570859
P         6.36360248222605    2.87903988185254    8.63687134191925
O         6.16677425806084    5.83147534456829   11.04520335265496
C         2.75896932310093    3.62475404623133   10.86449495933730
C         3.72435856075912    2.59887504966651   11.08802681346218
C         2.40353578782190    2.20674456277746   10.45003766329666
C         2.42355740157146    1.92591418453222    9.00639339210024
C         3.31564795303462    2.62131895143395    8.30519319189576
C         5.43616001211845    5.07289724334380   10.56793928139998
C         1.98660184652043    4.55704029606505   11.66024519852852
C         2.58414766803197    5.56066209814472   12.42702166082410
C         1.81505708088727    6.43604526617708   13.16636117161217
C         0.43242271987466    6.33701062558755   13.15359059002253
C        -0.17459023052828    5.35376797260224   12.38952418392093
C         0.59097765858749    4.47756393121021   11.64565954027938
C         4.39133934479704    2.00077066068226   12.22708172715300
C         4.26164221486600    0.62768591981582   12.45382333774744
C         4.88908048074532    0.02670930151218   13.52716696337164
C         5.66802367886714    0.77867766735790   14.39139200312774
C         5.81263469863789    2.13995632189523   14.17286433801786
C         5.18586400962518    2.74513955967081   13.10260408970071
C         1.84720614990914    5.68467357346803    7.92083013820859
C         4.09939967767517    7.31614997713553    8.31797094885274
C         4.07558108058969    5.44481824958312    6.21294975540680
C         7.89768671690897    3.87362891001571    8.42093260816135
C         6.33245758394638    1.99622312445181    7.02950572956368
C         6.99853627860626    1.54203852324204    9.71873105750579
H         1.68931013865200    1.66414338665976   11.06929046394244
H         1.73270616090803    1.19252776262976    8.59992410742029
H         3.36044482666951    2.44677467685901    7.22630622679061
H         3.66037752314820    5.64936369975656   12.43367580761286
H         2.29463729958034    7.20312262590743   13.75833067206135
H        -0.16733381080725    7.02439943101535   13.73222999070386
H        -1.25257873717460    5.27419880894359   12.37108039844979
H         0.11569407739287    3.71576425172969   11.04441918687156
H         3.65763858448192    0.03981372479859   11.77731228713676
H         4.77446513060381   -1.03576760616637   13.69123745284585
H         6.16132138795389    0.30716072425875   15.22886619055074
H         6.41896217022191    2.73186955727074   14.84425859040558
H         5.30681824464983    3.80486011678125   12.93382175905077
H         1.47024250943398    5.92282165262266    8.91436585099665
H         1.53741260350110    6.45234434095994    7.21181736756187
H         1.44588497414643    4.71781341347936    7.62456884765052
H         5.17998774610336    7.44137375419357    8.27623620972737
H         3.62749389578296    7.97180239349575    7.58683700304976
H         3.75943443962334    7.58091704342878    9.31772748625174
H         3.73856180714205    4.48186937486869    5.83686467081988
H         3.58693664416473    6.24458491305110    5.65727093831961
H         5.15416055629758    5.51560811167965    6.08246931086259
H         8.14388358076881    4.35541969408315    9.36500258134569
H         8.72942975051309    3.24368287744193    8.10752663140261
H         7.72507836563443    4.64664641987132    7.67382396661542
H         5.56829940303921    1.22389067940978    7.07464497527172
H         6.07751489563482    2.69470826694262    6.23507122237228
H         7.30164307824190    1.54319769322180    6.82273206092833
H         6.22186400494716    0.78727602967944    9.82691293126308
H         7.89935459155907    1.09156096148553    9.30213161142593
H         7.21131308334630    1.95225473933830   10.70446376036157

