63
CSD_code = KAQWOR | q = 0 | S = 0 | Stoichiometry = C28H30Cl2NPTi | MND = 8
C         6.22692165789519    5.65400806997425    7.22285569134142
C         6.30479520723562    7.01058335248621    7.65180935050906
C         5.53019940939334    7.80554210318589    6.75686755067149
C         5.01282462024350    6.94183737013306    5.75113739274475
C         5.44353785005386    5.61624779771354    6.04360297954852
C         5.03774365941669    4.39035779429885    5.28013235962025
H         5.75214109700174    3.58139798020840    5.43169331341183
H         4.97792031260636    4.60214597900442    4.21193434324832
H         4.05581137551671    4.04380182223746    5.61293474156071
C         6.75233060806353    4.47292550146740    7.98268786499546
H         5.99508002970760    4.12036480661281    8.68800502918647
H         7.64663194772832    4.73794415990259    8.54516000039970
H         7.00332689128230    3.65060347902748    7.31356893419564
C         6.99501187829102    7.49518460326041    8.89379704644257
H         7.13343403680174    8.57448379254988    8.85509214389796
H         7.97515178112120    7.02414779736948    8.99568070457046
H         6.40490263036659    7.25113091267069    9.78105245888799
C         5.22414882502927    9.26159737899481    6.95722215995710
H         4.63479653165555    9.65795837550743    6.13257697762912
H         6.14570583696785    9.84490064479698    7.02491285448005
H         4.66049862483773    9.40062371837211    7.88212102556619
C         4.03871352531033    7.29152100335018    4.66430139650466
H         3.06973892089442    6.83165237396723    4.87269448669981
H         4.38654192739809    6.92310848644999    3.69744994135932
H         3.90054185720475    8.36851707878864    4.59140514371647
C         7.00090392901894   10.45998357696692    4.13700579640699
C         6.71264402752090   11.71159707192845    4.66784193480298
H         7.41611242120548   12.17947830371683    5.34383248330670
C         5.53604509628551   12.35434461549412    4.32466588342077
H         5.31556125223421   13.32926113909473    4.73448135263534
C         4.64090392157428   11.74685454262315    3.45903847243265
H         3.72390081635059   12.25065446337856    3.19068137049663
C         4.91853925092687   10.49058587998644    2.94192612030266
H         4.21785809820157   10.01649927068020    2.26975092619029
C         6.09121447980768    9.84106640515176    3.28566875379094
H         6.31328147314546    8.85534053194662    2.89499003223107
C         9.27245479057824    8.84964125275636    3.21850449139531
C        10.15849554694392    7.80355299237504    3.45669628978159
H        10.29542489271135    7.45575969965685    4.47811537293972
C        10.83381798181422    7.21654050924645    2.40344386283133
H        11.51345541722069    6.39705143920793    2.58634369859354
C        10.63039649831434    7.67924629746546    1.11225052518804
H        11.14918701829782    7.21575339314833    0.28591107502978
C         9.76075195796209    8.73080856216962    0.87695944725484
H         9.60499260349151    9.08771772050554   -0.13079231053422
C         9.08063424780242    9.32222176001037    1.92766145346709
H         8.39519204936940   10.13808216272672    1.74365337457571
C         9.65808244699696   10.77815837265368    5.27890029930036
C        10.12730721041727   10.66816100927912    6.57958011315676
H         9.74892507506246    9.85715488301318    7.19015007810388
C        11.05479835990989   11.57676284558097    7.05741649762476
H        11.42369452285777   11.49562533379320    8.06948948262095
C        11.51316619598076   12.59027511183420    6.23120872429827
H        12.23762195261727   13.30100770284596    6.60132173908287
C        11.05015686380228   12.69486791624699    4.92805390675779
H        11.41474130171194   13.48516305713312    4.28777206589647
C        10.12400116176755   11.78793790214227    4.44684713658402
H         9.75656970720979   11.85804704482273    3.43212435882259
N         8.14575621840723    8.51666352507422    5.85697089748888
P         8.46322713373389    9.52561055941202    4.71491902115863
Cl        7.16559832168533    6.51774841472138    3.48983915629304
Cl        9.01021637610501    5.57243806691317    6.01181591828753
Ti        7.32231833896069    6.92315028200243    5.63346430686759

