43
CSD_code = KAQXIJ | q = 0 | S = 0 | Stoichiometry = C17H17Cl2N5OZn | MND = 5
Zn        5.01419841521701    6.65231542715223    3.30184891753412
Cl        6.11653855775516    6.50678069557602    5.20479574603347
Cl        2.91090160494152    7.50114596983087    3.34156568763207
N         4.90280741480834    6.54214611337744    1.13709448116029
N         3.39736254348227    7.06215621481318   -1.11446204175962
N         5.95367661238688    8.47565103527007    2.59690874828510
N         2.57025113203668    3.62456995475482   -0.55281647836466
N         2.23120819717030    4.16662000369838    4.18885643958109
O         4.28206026865223    4.61524644804523    3.35580083073765
C         4.84606712998222    7.77866549730575    0.62913595961241
C         4.09227755806919    8.01154182281538   -0.52483690033313
H         4.01551122281073    8.99178624163038   -0.97328495076505
C         3.44555523396026    5.83815413252386   -0.59059323066018
C         4.23819696594363    5.57987814013917    0.53547990054790
H         4.31105675361793    4.58979609760717    0.95636902024301
C         5.56279558831601    8.82015116921399    1.36989911040851
C         5.82526307358130   10.08953303891308    0.85806733123242
H         5.52259782710469   10.35593462956858   -0.14149753844372
C         6.49379395736788   11.00372249192866    1.65538351208983
H         6.70527646266675   11.99516561183389    1.28308421060689
C         6.88427007577006   10.62937849174009    2.93123520745521
H         7.40231810613842   11.31517977053174    3.58183784683366
C         6.59075878771587    9.34287165996114    3.35991469049979
H         6.86643963434809    8.98422255802159    4.34241386852751
C         2.63608366115644    4.78467816068565   -1.20553396549034
C         1.96464622381243    5.00897183695944   -2.40806721460644
H         2.05083431194213    5.96934145970443   -2.88922807173503
C         1.20571342538086    3.98254389327901   -2.94189250670849
H         0.67318377269608    4.12007533004853   -3.87172407951233
C         1.14046209282087    2.77592426353781   -2.26206316956607
H         0.56019794560448    1.95025775880561   -2.64296480690463
C         1.84295065740719    2.65549144672201   -1.06958711591379
H         1.82213384168444    1.73608217825008   -0.49891475083926
C         3.53580822514552    4.35481006643970    4.29905323786066
H         3.92829898938633    4.22354542327165    5.31880586594088
C         1.57116361310103    4.37402604349464    2.91616242356407
H         0.63933724624116    3.81238954745635    2.89893688394505
H         2.22020268762827    4.03180847596210    2.11134850949776
H         1.36762718377811    5.43827929823914    2.77116663840894
C         1.37893671441538    4.01491460011609    5.33900164235679
H         0.74896322364614    4.90002758215279    5.45462166024491
H         1.98192152994117    3.89467517319088    6.23655903741297
H         0.73835153037147    3.13884424542798    5.21761941334158

