53
CSD_code = KARCOX | q = 0 | S = 0 | Stoichiometry = C27H16N4NiS5 | MND = 6
Ni        6.82307457609981   -2.51014349727603    9.46623519340616
S         3.46037947401042    0.91123186673202    9.94742766956084
S         6.25673623571235   -1.37805151760374    7.61011588032978
S         4.36087170457666    0.93639041883072    7.16638735461791
S         5.35403631272572   -1.32754700553482   10.68947815478624
S         2.29141503298325    2.87770937637089    8.05039023143446
N         8.29957378609149   -3.28929306173011    8.41207099638119
N         7.05448733741980   -3.65866918979520   11.05515511015831
N         5.21148292975925   -4.14922002723931    9.13520847614184
N         8.54933325492718   -0.99684802562550    9.82907698459990
C         4.68642988886245   -0.26284291696793    9.50733477886756
C         3.92651469178245   -5.54843252075042   10.63377609416329
C         9.34664537587679   -2.48115962573796    8.14643153453012
C         9.11754443851424   -4.83415729054858    6.78870208376860
H         8.97671259134284   -5.77619754094675    6.28252832267199
C         5.04340208068645   -4.74079989527111   10.33295403627922
C         7.97817718231479   -3.44820440849282   11.97101288502130
H         8.76655233633705   -2.75284042636525   11.71393151517006
C         5.10032138037764   -0.25308079164177    8.22147342124064
C         6.05030048608348   -4.51560184193952   11.33338515924842
C         9.45403577787939   -1.23931337400748    8.86186629142347
C         7.96275981068781   -4.06508322867218   13.22330794111341
H         8.74613623730431   -3.84934224472587   13.93269866046826
C         8.19614341653436   -4.42688403025058    7.75533811844870
H         7.34185820159059   -5.04767553555310    7.99197839079769
C        10.31579840826987   -2.79802958880161    7.16942384836476
C         4.26945383068661   -4.28470816710616    8.22947941611441
H         4.44453117434935   -3.78848088658689    7.28300432952459
C         5.93935115465166   -5.16919507345580   12.58022218352544
C         3.31389960724500    1.64320102689216    8.37044671286212
C         2.93409613282767   -5.67189137403916    9.64538407476813
H         2.05684985428927   -6.27117014295509    9.84328397406129
C        11.36131650190391   -1.87060464860271    6.89262796130447
H        12.08698142427403   -2.13673373552749    6.13811953085207
C         3.09863106282673   -5.02143469819330    8.44750945126359
H         2.35080521758249   -5.08118795013985    7.67236852438263
C         8.58488247023314    0.16238089870358   10.44652087384722
H         7.83596877266233    0.31638302346924   11.21342576235739
C         3.84717779287511   -6.18509703355776   11.90450277268553
H         2.98649524085008   -6.80388069582913   12.11279791739755
C         6.93688438294166   -4.92373537380331   13.53657704777670
H         6.88048160399012   -5.40190148364739   14.50354029504849
C        11.42918285116068   -0.67796981623422    7.53138253035250
H        12.20644312742504    0.03378786538516    7.29409374756508
C        10.47504357014428   -0.32523536723178    8.52712971670725
C        10.17897725806861   -4.01611593488433    6.48568469601676
H        10.89909263511442   -4.28823540529946    5.72783012611001
C         4.82045056891850   -6.01479970916360   12.83117934544023
H         4.75864911398473   -6.49952009213514   13.79444122775428
C         9.52394367043451    1.15835890921456   10.15104479744076
H         9.49133824965070    2.09906348343849   10.67800172354108
C        10.48491425720372    0.90774742143063    9.20302507450880
H        11.24323552495424    1.63986088343749    8.96468705379927

