53
CSD_code = KARCIR | q = 0 | S = 0 | Stoichiometry = C27H16N4NiS5 | MND = 6
Ni        7.08190530955521    3.21494607007795    8.81013604813697
S         5.80938980592173    4.05796418960050   10.45836459687787
S         3.83550351200631    2.73121076805923   12.32611830838385
S         6.63482868085783    1.11193253280828    9.48627244517494
S         4.67208813603386    0.04708379546281   11.52556293471791
S         2.55458567740054    0.36352574911663   13.58613039780100
N         9.02317858217495    3.22509699130955   10.07837835308604
N         7.15998569898080    5.04453871080682    8.06794554752070
N         8.39289770773996    2.40976453400661    7.57760200662969
N         5.20801454329055    3.28082541886863    7.43148596482044
C         4.96227708048412    4.58955950924684    7.23104628175835
C         6.88459143138263    7.76672969082656    7.53420483131917
H         6.76925077752896    8.82381347328549    7.34372413728723
C         3.71756424046241    5.07038486602786    6.77404853415062
C         9.53430141072372    1.95162631038259    8.13245114730816
C        10.98272797914919    1.80531377734584   10.11905432243399
C         4.57427885503242    7.33102229728418    6.73331900836712
H         4.45010890345877    8.38662622042689    6.54086057741421
C         3.62932789767564    1.01178208462811   12.53895494162577
C         6.02297232876511    5.51671924349093    7.51601968280109
C         5.82818809719784    6.88888643978625    7.24541086976779
C         8.04430548258106    7.26007862735823    8.06903680672889
H         8.87700917735597    7.90342037337982    8.30606088736850
C         5.08508631426593    2.63024065826553   11.09980311664266
C         9.25501470367920    3.55042365542692   11.32992035114177
H         8.56303382441609    4.25484545598825   11.77441232860544
C         5.46872038373903    1.38947547359270   10.72693628422837
C         9.84889946033745    2.34697243267270    9.47774982764718
C         8.13515928895094    5.89124560191687    8.32903807015767
H         9.03131826829872    5.47756835470947    8.77296028694891
C         3.55554039465204    6.46263618400444    6.52551520636015
H         2.59592258787168    6.80959000414562    6.17082049849592
C        10.40751007788089    1.07681680209782    7.44978161011652
C         2.68736913224576    4.12953133659980    6.59745638470582
H         1.71368623934704    4.46130976676450    6.26633829155921
C         2.94010912986702    2.80519721431717    6.85613973668888
H         2.16984004036255    2.05789845848861    6.74746398364036
C        11.83465771316235    0.91967896890656    9.40043422618436
H        12.69903858800931    0.51796815125834    9.90892468203233
C        11.56576372171030    0.58249295616172    8.11630887648532
H        12.21362173583087   -0.08992349971642    7.57330618854158
C         8.91254208343158    1.20570497565191    5.58523387587390
H         8.61737400504730    0.94351921002861    4.58146110404171
C         4.22889645995906    2.42361979773478    7.24938633020152
H         4.46890881315900    1.38193899861509    7.42300214809360
C         8.09996219990752    2.04967787815901    6.34420180085670
H         7.17549784302543    2.43464444755009    5.93369687649048
C        11.20284812178247    2.17085946229817   11.45870922927708
H        12.05382099482943    1.76680748330147   11.98835303958906
C        10.32511665854990    3.03188351557548   12.06972827028123
H        10.45471204644275    3.32243655610481   13.10046001410087
C        10.06779160896847    0.70817513330661    6.13887787550231
H        10.70935624451569    0.03541289249092    5.58879085402019

