31
CSD_code = KARCEL | q = 0 | S = 0 | Stoichiometry = C13H17Co | MND = 9
Co        7.58239826679659    3.82655408986872    2.69953038960431
C         7.66730067916627    2.45658712095504    4.40902734627400
C         8.72347092389268    3.39070992577205    4.46481600439013
C         9.47623413543606    3.27109451770903    3.27734461616505
C         8.87995051159908    2.24403097542948    2.48486782211977
C         7.77243187959763    1.73953434400575    3.20043110752490
C         5.78044194860773    4.54935207183536    2.97361631039122
C         5.76440453908104    3.83770098323698    1.75488311518460
C         5.85422037752164    4.45794327580515    0.37396845993792
C         7.31500652169784    4.48882994302737   -0.07626240732057
C         8.23287534690435    4.81708166924124    1.09831304125485
C         8.28163908013754    6.30206112779143    1.44758381900205
C         7.04393797057135    6.70644430923619    2.24897958686819
C         6.68824683277397    5.59974949119816    3.22181308501134
H         6.96952556741765    2.24891332236787    5.20500198822909
H         8.97334622347637    4.01103587114436    5.31078154414060
H        10.42464513964303    3.74662394669674    3.08102369899283
H         9.30410910273310    1.81237399416986    1.59164837054256
H         7.17010209224884    0.89152384365924    2.91578592298465
H         5.25668194902948    4.11643790220432    3.82476794881716
H         5.16496789854475    2.92805457453460    1.77208053139042
H         9.24716487314174    4.51103470810480    0.81718960415066
H         9.16656863856018    6.48795618977207    2.05965584261770
H         8.37135957020346    6.90644243893422    0.53824580085141
H         6.73644327010867    5.91829413756925    4.26248286530884
H         7.24426220163158    7.62464932895546    2.80458684876091
H         6.20498870807219    6.90369256098144    1.58244541196886
H         5.26212514173708    3.86639791056525   -0.32672601776037
H         5.43617093088753    5.46382730097552    0.38777696195530
H         7.58016552864412    3.50178002480455   -0.46013681286275
H         7.45761415013644    5.21158809944852   -0.88692280649566

