94
CSD_code = KARDOW | q = 0 | S = 0 | Stoichiometry = C46H41Cl2OP3W | MND = 6
W         2.94532771028998    1.88273950483718    3.49072602192466
P         3.04261677232434    1.96176874572067    1.05985677906996
P         3.45553301905273    1.12969459373005    5.75238919943458
P         0.32275168803063    4.26931609023465    3.95995369492568
Cl        5.07987006670094    0.88481956256313    3.17138323029733
Cl        1.82020540982054   -0.24590090169612    3.19508021698207
C         3.75825203530483    3.66176117223000    3.71725686651254
O         4.08269655034667    4.77056583495353    3.85722660956618
C         1.38333609993397    2.96354328140417    3.74896536259900
C         3.35418749618194    0.36888338814167    0.21736469052456
C         3.55464310999797   -0.68643140929377    5.95957963782789
C         0.32720682731939    2.07231180277342    0.69661070513691
C        -0.85826828155598    2.42499875199517    0.07790126382159
C        -0.83453726646115    3.21413476089299   -1.06182628113356
C         0.37561659209558    3.63345973951536   -1.58980596804987
C         1.56498168782928    3.27510928468355   -0.97861932007396
C         1.54356968320188    2.50178345457105    0.17479956000254
C         4.11749466666425    4.44143872632692    0.65626043823045
C         5.07115284324822    5.36467446322939    0.27962274138819
C         6.24828279859763    4.93707909590932   -0.31755109054357
C         6.46385658880621    3.58743036327119   -0.53434413617023
C         5.50518428422094    2.65755876534175   -0.16616984865670
C         4.32167718236369    3.08168720644168    0.42331150952928
C         6.17423775304944    0.92778947678505    6.50311185651143
C         7.37293492713610    1.47053824662250    6.93448385589457
C         7.45009376556806    2.80768205445766    7.28220178461755
C         6.32415509020863    3.61165751537497    7.18967994380266
C         5.12963308938594    3.07533766731270    6.75204449102257
C         5.03977919531031    1.72553116978228    6.41789527156041
C         2.61366946046885    1.77665528407115    8.39200065332448
C         1.63063284847412    2.04736769473209    9.32823616745373
C         0.29629768952171    2.05634984728812    8.95778287659390
C        -0.06169001378938    1.78477967963878    7.64698198979135
C         0.91763113195967    1.52057689482806    6.70879936902589
C         2.25991944363347    1.52325163366032    7.07359820542391
C         1.39554099312843    4.75464022217512    6.42817424729604
C         1.39738986260919    5.09096275141834    7.76729247380870
C         0.21091696130896    5.45389673201180    8.38614661561943
C        -0.97144726568774    5.48286827677862    7.66550714285772
C        -0.97786124132667    5.15800207888067    6.32000553861910
C         0.21167596937565    4.80190414193147    5.69907815173910
C        -1.74707810387712    2.53560399076694    3.49177130093619
C        -3.02534700181513    2.16354579688405    3.11818492448363
C        -3.92929614717364    3.12691740846694    2.69771756339188
C        -3.55768629655874    4.46174987456122    2.65178587863186
C        -2.28230419854884    4.84144411646526    3.02961234487645
C        -1.37709732816098    3.87437229706179    3.45018846325584
C         0.61752880433872    5.66396986737154    1.60819423177609
C         1.15469356866860    6.64211551733656    0.79384359310354
C         1.92601686390728    7.65505463636330    1.34388912775242
C         2.15578675673664    7.69189142929771    2.70983918415945
C         1.61813406179980    6.71938939821729    3.53332362622331
C         0.83568370046764    5.71053487700387    2.98323763293105
H         4.25697083509488   -0.08163938002377    0.63289714261086
H         3.45005817300699    0.51375844617193   -0.86002977504625
H         2.50768086419505   -0.28571773499618    0.43367381925731
H         4.23247033576303   -1.09311938407187    5.20691207419675
H         2.55770120731656   -1.09267272209981    5.77959803439850
H         3.88828001656702   -0.94426037238789    6.96623474021645
H         0.32755366825907    1.46384013835835    1.59333495436270
H        -1.80186931800392    2.09351613788776    0.48654854622667
H        -1.76011995352487    3.50067192413873   -1.53989381082044
H         0.39310399937944    4.24116356167013   -2.48333883566133
H         2.50841984499171    3.60337348289245   -1.39219943451824
H         3.20046562512955    4.75741231383504    1.13894763757228
H         4.90275344988277    6.41606099186909    0.46164167694506
H         7.00082389710110    5.65669650841059   -0.60533833309964
H         7.38600680492003    3.25405717346085   -0.98834985910457
H         5.68840843532399    1.60571003254875   -0.32840975459024
H         6.13251099225215   -0.11280508444411    6.21872062151454
H         8.25246330797534    0.84565211739374    6.99309360290086
H         8.38790910044236    3.22684370769737    7.61639052503627
H         6.38319320279010    4.65872375097129    7.44945877356999
H         4.24905295586387    3.69779979748017    6.66336462894378
H         3.65498681772388    1.76883163792102    8.68382353414400
H         1.90755993435595    2.25081831516544   10.35275941616380
H        -0.46560599527501    2.27217935898578    9.69241184041644
H        -1.10285255391827    1.78571244579230    7.35839304015424
H         0.66260973118390    1.31664983045736    5.67381916946796
H         2.29706912489714    4.43796674577337    5.91797754918593
H         2.31690692751731    5.06219136560465    8.33290098405274
H         0.20742961107726    5.70883886017048    9.43548107388244
H        -1.89467938421919    5.75866677653412    8.15410768716657
H        -1.89976378466174    5.18009523310002    5.75553853604593
H        -1.01450601642793    1.80083381930087    3.80159751512158
H        -3.31575944530302    1.12372449364103    3.14841767797447
H        -4.92658158626836    2.83735256539683    2.40028912739102
H        -4.26497810811641    5.20814968276507    2.32024540160761
H        -1.98360832889720    5.88086555764036    2.99747671802242
H         0.02718163092502    4.85973818855378    1.18985632986088
H         0.98205908004931    6.60620492216971   -0.27182272164186
H         2.35293409178207    8.41370866371234    0.70453043652730
H         2.76372909875332    8.47686686243048    3.13472334755302
H         1.79664980591744    6.74193241315906    4.59913597280465

