78
CSD_code = KARDIT | q = 0 | S = 0 | Stoichiometry = C34H38CoN3O2 | MND = 4
Co        9.28860637468869    3.89794696356038   10.59987594506996
N        10.47659088521567    4.89037180253919    9.52273535434094
N        10.11514893950071    4.68771123498042   11.88513679033655
N         8.30575675097514    3.11471970521360   12.03097440751204
O         8.38850163292520    3.00830198538793    9.38473324766155
O         7.77610019990078    2.22499751907099    3.97224455735305
C        11.31536050375102    5.64364899760309   10.19428305301861
C        11.13600786958325    5.55352379253130   11.60939665248138
C        11.82434673626589    6.19450916127399   12.63273275877914
H        12.62841946422770    6.87481264596435   12.40009640556180
C        11.46447028669188    5.94823304199568   13.95040157122220
H        11.98873182127433    6.43918597127353   14.75558128461741
C        10.42741418842079    5.06583656080939   14.23113704331852
H        10.13891445604793    4.86436671496871   15.25073195091333
C         9.76431198707656    4.44301519090300   13.18281926123973
C         8.68248550076178    3.50300027499189   13.21999161339121
C        10.50797727587883    4.88084520635185    8.11300205161088
C         9.74897969062092    5.81122680820611    7.39793343254163
C         9.74129211811536    5.74526015356773    6.01560241564021
H         9.14712321275093    6.45559818559165    5.45862695791799
C        10.46127954739089    4.77691955417642    5.33010535055402
C        11.21113432915899    3.86744283230102    6.06014350070338
H        11.77433593906201    3.10403274797382    5.54187848533672
C        11.24679604192530    3.90256299713222    7.44430390920330
C         7.25924362453633    2.18925994476154   11.86440504512337
C         5.95305112828756    2.64969078743483   11.67696242382569
C         4.94197548544236    1.72636569791947   11.47424385109944
H         3.93007527876818    2.07732031261341   11.32702047347945
C         5.19940227832154    0.36210241964816   11.44470884555565
C         6.50674458485366   -0.07061880167441   11.60771459918386
H         6.72623855078763   -1.12844116618662   11.56581460412243
C         7.54534598598098    0.82343400292759   11.81320614693972
C         8.26624496035329    2.81152032421363    8.09215632490226
C         7.45831817768890    3.64010818361497    7.29730024785494
H         6.95316097627197    4.47163289539602    7.76616611025942
C         7.31140372169849    3.40772385591079    5.95012182836454
H         6.69865328458244    4.05528674749760    5.34162789389914
C         7.95880031961847    2.33902383229408    5.33611024092830
C         8.72993460740062    1.48621530099584    6.11104601528732
H         9.23172769147974    0.63539530587365    5.67543150499140
C         8.87545940402715    1.71836016529877    7.46542576753078
H         9.47871736610149    1.05093764481117    8.06351344470705
C        12.36283019877621    6.51126359163080    9.57190262060476
H        12.34188973753834    6.42289019276310    8.48843153170396
H        13.34914354859400    6.22172737932535    9.93262621015533
H        12.20024015238424    7.55330179484821    9.84640308199378
C         8.06882024524273    3.03544438241247   14.50194805227417
H         7.26524473793132    2.32952756339696   14.30611048206725
H         7.66988315070477    3.88360872293160   15.05751932781690
H         8.82194130264085    2.55352167376051   15.12466805770700
C         8.94728564112346    6.83878765010820    8.13775548908497
H         8.22298366817380    7.30897864372779    7.47778305695444
H         9.59461707399478    7.61357534189749    8.55070535420759
H         8.42213299736438    6.36678289993518    8.97118990624744
C        10.38890758561152    4.69556973934796    3.83614295157415
H        10.35704350356681    5.68882920463595    3.39283948187739
H         9.47916830222419    4.16966956822531    3.54638346437209
H        11.24159150618165    4.15479136874136    3.43164172677821
C        12.04752994534479    2.91368218520770    8.23467896067128
H        11.44844311187054    2.53798984366997    9.06755584779220
H        12.93851111797425    3.38402414668022    8.65333775178560
H        12.35590109593191    2.07982798883989    7.60979244936173
C         5.68572598314715    4.12327063809754   11.67609811289243
H         5.81215849235170    4.54328138531675   12.67474837067934
H         4.67554545760436    4.33373664746032   11.33478715322071
H         6.40063074729628    4.61758537469615   11.01389867282633
C         4.07979110483536   -0.61505188468542   11.24430796480446
H         3.49841755696966   -0.71480570130417   12.16179771632956
H         4.46330025353975   -1.59604348838126   10.97527430065516
H         3.40824854547382   -0.27320390659067   10.45925549847267
C         8.96293987532079    0.36073734008892   11.95515971225107
H         9.05458473698190   -0.69093218367005   11.69627174606279
H         9.31900728241215    0.50054615175606   12.97659587014520
H         9.60273843924543    0.95176176249043   11.29592673477515
C         8.40491683821739    1.15837457635293    3.31518352200331
H         9.49530006285111    1.20536340796950    3.41874274352706
H         8.14079656447402    1.25853463216781    2.26259623131683
H         8.05070625769746    0.18886386449964    3.68349647670053

