83
CSD_code = KARHER | q = 0 | S = 0 | Stoichiometry = C36H36FeN6O4 | MND = 6
Fe       -2.73204112643008    1.12660222164383   -3.57023089815630
O        -3.07308180287642    6.58128785537025   -2.89254218774214
O        -4.91548699520527    5.92969526583401   -3.97272853917883
O        -3.81054246620178   -3.92003409183356   -2.23337662658410
O        -1.75117129210319   -3.80650313283458   -1.38212733242168
N        -1.62107773481309    2.63556486667004   -3.20779612764186
N        -4.09562618359197    2.14817749840973   -4.33067811564678
N        -3.82689624622584   -0.34048543675562   -3.92158751111259
N        -1.33614486114362    0.07336660010669   -2.79535873109072
N        -1.90572000660112    0.93651990378379   -5.28753154017800
N        -3.52181222450232    1.31866441753763   -1.84296738226825
C        -2.06192147155770    3.84420901776065   -2.96268533737190
C        -3.30803211260295    4.27554792211001   -3.51252663802294
C        -4.18624312092173    3.44191563161883   -4.23446985491356
H        -5.02481613111694    3.95123312862216   -4.69781315159169
C        -5.02546068650542    1.36687144430171   -4.99950710690640
C        -6.04122249259688    1.81400942930948   -5.83738820919144
H        -6.15988513183183    2.86760225811676   -6.03869025721053
C        -6.89766081766907    0.90783377153115   -6.44076396268671
H        -7.67517771076634    1.26562773160066   -7.09905421298303
C        -6.75486587373911   -0.44970780563774   -6.21068023341941
H        -7.42144189426753   -1.15182684956239   -6.68848690076317
C        -5.75266764195583   -0.91627233226762   -5.37626853088679
H        -5.64612609394152   -1.97795229165669   -5.21697082877841
C        -4.87853062654667   -0.02347965809331   -4.76620743265620
C        -3.65063161788491   -1.51968578439264   -3.40599885588349
H        -4.36018058777074   -2.31739913966676   -3.61419207376838
C        -2.62286698504798   -1.89365736703026   -2.51501206139310
C        -1.51088657158952   -1.06911552413325   -2.17739990540277
C        -0.16235758335529    0.81052140027614   -2.80702148221028
C         1.11651466873775    0.26409995029893   -2.80341623582852
H         1.24296561826077   -0.80319634007362   -2.71756397017500
C         2.23110040592360    1.06821386082898   -2.98580928216214
H         3.21485807306096    0.62323471184665   -2.98496037022235
C         2.07977686200235    2.42356999449720   -3.20639087997748
H         2.94410472266020    3.04693588154956   -3.37943607678532
C         0.81257411886200    2.98450954246716   -3.24566494035103
H         0.70119190915453    4.02603821336143   -3.50120049995475
C        -0.31690813892605    2.20191653536204   -3.03233060993012
C        -3.70328487729783    5.67542906559168   -3.40251746515026
C        -5.34194548492835    7.28583422399148   -3.92963430819091
H        -4.55471163849185    7.92305671426652   -4.34967326808707
H        -5.49010021228961    7.58189915798030   -2.88416608973282
C        -6.63092772423148    7.40599279361134   -4.72222378514033
H        -6.98182359526360    8.43365600758872   -4.69708021406360
H        -7.39299606292276    6.75864472981614   -4.29620320923308
H        -6.46396197648884    7.11284534565658   -5.75555221331402
C        -1.30576901764596    4.76807857715819   -2.05338590519785
H        -0.51777086901399    4.23034724361683   -1.53116134562348
H        -1.99511136995781    5.19233796166371   -1.32700064157667
H        -0.87950128531708    5.60800238883778   -2.59774153596549
C        -0.60228408502644   -1.46582650953154   -1.04620558817316
H        -0.01555848693352   -0.60930627512961   -0.72064292424695
H         0.06881332547687   -2.27431418554998   -1.32541687805670
H        -1.20513946516375   -1.81940053102149   -0.21333919406113
C        -2.80406781786598   -3.26293109577225   -2.03468244130028
C        -1.91827630406824   -5.15584985980473   -0.96104007111814
H        -2.17803294978714   -5.77266210605716   -1.82933068696672
H        -2.75315101033564   -5.20903296041355   -0.25228748021287
C        -0.62224301107169   -5.62025735763350   -0.32196410395015
H        -0.72758494413054   -6.64792826009460    0.01349533721584
H        -0.37762319146540   -4.99120351063445    0.52992699820870
H         0.19119768398358   -5.56338485167649   -1.04061636830228
C        -1.45345134406600   -0.24423746704040   -5.71082804941913
H        -1.65552337803274   -1.08217376355651   -5.06324884364191
C        -0.76544545454060   -0.41403684340023   -6.89618014987406
H        -0.42192564808275   -1.39553422312852   -7.18285328483013
C        -0.52566136263762    0.68969474459984   -7.70085964806340
H         0.01258178009006    0.59511028673206   -8.63128238601823
C        -1.00189591090530    1.91880167902719   -7.27007243669781
H        -0.84772971926044    2.81076089032817   -7.85672326695724
C        -1.68016984197817    1.99281376120761   -6.06928335144747
H        -2.06134644736446    2.93369022828867   -5.70606556856927
C        -2.78420448312151    1.57268024898461   -0.75678131880988
H        -1.72238171719595    1.66943216093887   -0.91178288071376
C        -3.30646040960737    1.71296866894687    0.51271704958293
H        -2.64870280309011    1.91815239885801    1.34309765756030
C        -4.67484772023922    1.58762496074805    0.69972514509305
H        -5.11855980352078    1.69029678585673    1.67769088389387
C        -5.45018957155047    1.32575855953522   -0.42001193072866
H        -6.52054578717114    1.21739288609719   -0.34111342624036
C        -4.83964379465628    1.20179002644413   -1.65173064318758
H        -5.43344436120216    0.99863400320831   -2.52703527526493

