78
CSD_code = KARKOE | q = 0 | S = 0 | Stoichiometry = C40H29ClN7Re | MND = 5
Re        2.65661500443779    3.56352397966546    9.98953942779472
N         2.20253084127613    4.77259289998260    8.84162403888492
Cl        1.56072031195534    4.18583017744227   11.93816785269484
C         4.46483043062428    4.28145467854824   10.85763947699846
N         5.08486855425929    5.49056930241127   10.81480352985183
C         4.54887258227335    6.67474501980640   10.25605463666980
C         3.25169290610376    7.06315670921475   10.56217459864409
H         2.64878907246529    6.46846181493541   11.23065372893038
C         2.74159996658762    8.22011096401317   10.00069066078769
H         1.73066590392693    8.51690024757819   10.23055181065162
C         3.51847130566990    8.98881674727211    9.15158322346957
H         3.11578202345180    9.89034568850857    8.71530803665192
C         4.81516140246126    8.60028784581180    8.85873078004187
H         5.42535029873018    9.19701584952514    8.19701238383845
C         5.33486332722371    7.44232673495343    9.40565782826428
H         6.34221832650029    7.13152529412955    9.17379677254820
N         5.38532433765694    3.47275323268275   11.42421003365553
C         5.26203580237283    2.09168553117047   11.65621042177447
C         6.34028898563098    1.26063489979000   11.37303360637412
H         7.27448132229302    1.70553515747588   11.06718933015411
C         6.19439696681174   -0.10861896023758   11.48784506144750
H         7.02719737486049   -0.75474495503397   11.25270777719527
C         4.98306153184091   -0.65074174482073   11.88889150613501
H         4.86512439987546   -1.72154051788833   11.95429256268161
C         3.92942976246820    0.18197916529763   12.22653256088428
H         2.99388202925476   -0.23454399746665   12.56939818093167
C         4.06526936488370    1.55599914208526   12.12485797067217
H         3.25716976816069    2.20409238191033   12.44081186349755
C         6.35062573678689    5.34124795953941   11.33350845184590
C         7.33580624277016    6.39771946671810   11.51083333628550
C         6.96673840939064    7.65561076647546   11.98150053094569
H         5.93477415165523    7.86323327230274   12.22183819228549
C         7.92858242067376    8.63277379316774   12.15509991786563
H         7.63938165562601    9.60627619491347   12.52113961968205
C         9.25680899107081    8.36604983819600   11.86478892750259
H        10.00306781035101    9.13489353778889   11.99805968527095
C         9.62814810273905    7.11054038487798   11.41173056969654
H        10.66432196232978    6.89828253470265   11.19441029910058
C         8.67393376185072    6.12598988131050   11.23872099398072
H         8.94693428435328    5.14255352570203   10.88828114113275
N         6.54552984803179    4.10898146320858   11.69378862903584
C         3.73864189696055    2.12219475688896    8.90019080482909
N         4.94130992154472    1.92249598516729    8.29361331807969
C         5.86028392468558    2.95847314374112    8.02984424621111
C         5.38507715280666    4.15986382629464    7.51642596288968
H         4.32920886519393    4.27750777955308    7.31937508025805
C         6.27559626074422    5.19198872939652    7.28095321826207
H         5.90761520807302    6.11704894125702    6.86622341948781
C         7.62042695673870    5.03964460219541    7.57729179180643
H         8.31109604444436    5.85078466195025    7.40080363789894
C         8.08286551918005    3.84419602389385    8.10331834277112
H         9.12941786421114    3.72290880697676    8.33935467954258
C         7.20865671212461    2.79702435421187    8.32746592107634
H         7.56673058440890    1.86065145244726    8.72813983491882
N         3.22958625978835    0.88913545462237    9.03246599281235
C         1.92794626252210    0.72631807083628    9.53465074481521
C         1.34851254478159   -0.52477746408842    9.65883007821658
H         1.91846502323876   -1.40662742409604    9.40654987510240
C         0.04364442252500   -0.59676698014773   10.11131265091640
H        -0.43514893902015   -1.55831325713224   10.22494909455542
C        -0.64485702436980    0.56791503881177   10.41224018257542
H        -1.66778334941175    0.50945741512516   10.75628241210725
C        -0.03675962669454    1.80893642776874   10.28717086111394
H        -0.59629274271014    2.69988357295325   10.53649463216556
C         1.27721277184449    1.93416283816777    9.85060714057412
C         5.08309994206613    0.56610275702921    8.10021635199231
C         6.19667406139417   -0.09736208929962    7.44398218398928
C         6.83423848808427    0.47046319519223    6.34224899437057
H         6.50130278356365    1.42157751884053    5.95297148014462
C         7.87971435802232   -0.19786286786080    5.73346197385132
H         8.36916214498418    0.24528702117581    4.87913817870812
C         8.29505677347078   -1.43048799363911    6.21127093164480
H         9.11518206771702   -1.94559661805224    5.73424952708347
C         7.65018889045881   -2.00638292482636    7.29467733417627
H         7.96571512778204   -2.97207969028658    7.66066983611816
C         6.60175414952548   -1.34771431822533    7.90765705278500
H         6.08419585338465   -1.78383980117341    8.74815701275756
N         4.03581556425039   -0.06291685333992    8.55937526262936

