67
CSD_code = KARNEZ | q = 1 | S = 0 | Stoichiometry = C24H39ClIrNP(1+) | MND = 8
C         4.47426536628023    0.38851590286399    7.87290378652320
C         4.22803579598399   -0.99259151394804    7.51748420790812
C         2.93172453108401   -1.33779425349659    7.99892032000369
C         2.36548306173498   -0.16811275041761    8.63186503587707
C         3.34423615295365    0.85880108510069    8.60789729154291
C         5.79265817807146    1.09217202888082    7.87138914830758
H         5.73223966261934    2.07321569876560    7.40245442212355
H         6.56105676600590    0.51093041537563    7.37083732353971
H         6.11003552606222    1.24494831415230    8.90413543105873
C         5.26732929266968   -1.96676775498520    7.06132213687138
H         6.02241576716294   -1.49453605578250    6.43829346562741
H         4.82597871950696   -2.79232071387357    6.50891966015555
H         5.76691254834563   -2.38160159359855    7.93853613151956
C         2.32484751445969   -2.69679539069968    8.06835981445402
H         2.29170220711426   -3.01824074117376    9.11046312694416
H         2.90023039287567   -3.42365670155851    7.50198904670639
H         1.30316891573142   -2.68973502604006    7.69131534746285
C         1.08026257494753   -0.17697999542660    9.38495438416389
H         1.19558908051770   -0.76026887633824   10.29950103997352
H         0.29331692685669   -0.64143813633043    8.79306958744999
H         0.76135475485923    0.82637967581025    9.65625518113237
C         3.31488564053676    2.15723937949368    9.33910111014358
H         2.32433894253103    2.38736545509633    9.72427032595351
H         3.66229450026508    2.98160252777250    8.71702432895894
H         3.99116347215973    2.08971679588022   10.19364563094985
C         1.20654480384094    2.79245877759780    6.59011436907267
H         1.48995073286356    2.65956597718490    7.62128797380225
C         0.38408472092085    3.84268413184754    6.23393901124198
H         0.02965914943711    4.52698731170673    6.98680849148501
C         0.02645952836452    3.98625611401515    4.90231017105944
H        -0.61756380426195    4.79001877974483    4.58318387533788
C         0.50964334744294    3.06310503780090    3.99310413881380
H         0.24648482314994    3.12954904139003    2.94914141528820
C         1.32799724580083    2.02537345853901    4.42348427538603
C         1.79963461610280    0.98119011987596    3.46658063399480
H         1.93663209039413    1.38485044999760    2.46249286162759
H         1.02820600939249    0.20456460140128    3.42953938383668
C         3.36446059988248   -1.47932289435116    3.18468635952848
C         2.48501407963291   -2.46245562426149    3.95613448407425
H         2.85562534727016   -2.59783262845558    4.96979248029405
H         2.48707534450637   -3.42809336466643    3.45538329297401
H         1.45678439468038   -2.11861200593773    4.01979175803394
C         4.78844473913784   -2.03272337133814    3.14852148448947
H         5.41838177509294   -1.48214409758270    2.45595065523708
H         4.76146479844685   -3.06719851665254    2.81052103999383
H         5.23867029467682   -2.01570437916463    4.13748377283678
C         2.82373079405481   -1.33407777116111    1.76205287197703
H         1.75382462917943   -1.14663136139693    1.75721610760850
H         2.99138579866402   -2.27102327215441    1.23368453321961
H         3.32243232321283   -0.54809320845812    1.20402623267320
C         4.70644533814824    1.32552163205927    3.62652242887582
C         6.01732378529297    0.83325197519379    4.23868943547972
H         6.75298597673495    1.63531676471130    4.23340376568032
H         6.43793569054401    0.00037379615390    3.68610949054744
H         5.85205244765861    0.52796627754808    5.26736514099332
C         4.85895267291042    1.48315670733128    2.11693996443862
H         3.94185418378869    1.82995067688040    1.64689255915597
H         5.17457549690989    0.55917423793398    1.64234226996339
H         5.62822760100798    2.22864320266447    1.92077225699904
C         4.37804584921646    2.69018749591726    4.23829070990757
H         4.20661322139206    2.60301955784249    5.31103943910083
H         3.50143292829196    3.13953009963358    3.77756445669828
H         5.21526224701331    3.36839901938501    4.08437394530362
Cl        0.53296230278289   -0.68794897650938    5.94206065368280
Ir        2.68407960210101    0.19717601309861    6.42438085060282
N         1.67855427258001    1.90361530497055    5.71442527767393
P         3.30824191038110    0.15092713414793    4.14888839565827

