59
CSD_code = KARPOJ | q = 0 | S = 0 | Stoichiometry = C27H26OPReS3 | MND = 5
Re        3.91842993977296    1.04954161206950    8.73108525791817
C         2.38891969048073   -1.55832478652048   10.38189191911715
H         1.88487705972840   -1.84527288046088   11.30391931126581
H         1.72147217346446   -1.68434603195013    9.52630692771560
C         3.66527127205863   -2.29137050722762   10.18639281629172
C         4.21501188175651   -3.09475020681753   11.17608491160054
H         3.69144075351378   -3.20650887371259   12.11500467389098
C         5.41106189579903   -3.75467800436875   10.96255837403907
H         5.82330069575977   -4.38344583546444   11.73776009028382
C         6.08081760970557   -3.60750634157258    9.75746986628074
H         7.01512974887779   -4.12224321591480    9.58977790756044
C         5.56174527212798   -2.79128732077957    8.77193336201632
H         6.07790396799490   -2.65103324883390    7.83447933821111
C         4.36272731962291   -2.12577025663752    8.98780113673634
C         2.72905223156669    0.84534293065029    5.48846615005906
H         3.72288705896174    0.41362720696024    5.37148738254873
H         2.01951944958635    0.05352138628825    5.72912436418486
C         2.31101139879577    1.61300420516970    4.24870135678699
H         1.32349710736357    2.04832421006355    4.38496988326992
H         2.28461336523138    0.94214303022839    3.39266178932073
H         3.01658634240028    2.41553816968097    4.04649320278203
C         0.67431867241708    3.83604319543153    8.96654929356243
H         1.13761110295236    4.06061724742690    8.01573954531301
C        -0.69246099464066    3.96026910331942    9.13337568695888
H        -1.30469518796776    4.29850667426395    8.31040487366641
C        -1.27699023989692    3.64428105545652   10.34981753399829
H        -2.34528558365412    3.74068127572667   10.47596037978233
C        -0.49450918262445    3.19296909293664   11.40083359456581
H        -0.95238672753319    2.93324082991816   12.34388663751267
C         0.87329404628417    3.06460370299765   11.24450231288133
H         1.48628373723604    2.69370081128090   12.05379102108769
C         1.46408870121760    3.40364215586221   10.03002598429472
C         5.09218229612885    2.61606085856635   11.76384460389387
H         5.41079745025014    1.80582424127366   11.11687015302508
C         5.73667211215137    2.85266160879249   12.96533077686800
H         6.56228150038788    2.22435732875929   13.26396058505875
C         5.32279178103443    3.89187411782254   13.78181137616404
H         5.82382881262043    4.07361395779091   14.72109230031753
C         4.26677618348658    4.70304401456434   13.39517980823769
H         3.94903042212757    5.51690006262916   14.03041276851398
C         3.61849030531695    4.47413529554393   12.19643879715256
H         2.79541850150409    5.10598839113373   11.89258635272100
C         4.02408449549921    3.41987783430773   11.38209788159831
C         3.19519123970411    5.83956434562450    8.94069678715530
H         2.28914207058525    5.95033121480106    9.51987655959125
C         3.72822492367788    6.92758401177427    8.27356788508171
H         3.23755530543559    7.88767320840695    8.33815178487675
C         4.88532548712672    6.78873263145730    7.52441104069935
H         5.29364995720901    7.64167364955896    7.00277104408638
C         5.51650403044740    5.55800638244938    7.44160769294256
H         6.41809185505870    5.45027567422605    6.85765079712480
C         4.98909592264325    4.46482553552121    8.10340688539036
H         5.46700768820819    3.49302683842882    8.03909443041159
C         3.82198519305979    4.60153562156251    8.84885740824847
O         5.58574031149634    1.16669765292843    8.73963261017545
P         3.23487551081711    3.14911015772092    9.76853008220229
S         2.69608697135793    0.25252077529708   10.54289951686311
S         3.72843909717257   -1.07866929615511    7.71723286582822
S         2.81178599711342    1.98611349978148    6.91313032028120

