50
CSD_code = KARPOL | q = 1 | S = 0 | Stoichiometry = C16H26MnN3O3P(1+) | MND = 6
C         2.68959404940499    0.13055071112115    6.07380328333039
H         1.76819230184623   -0.25274995891852    5.68365849986213
C         3.57952021037316    0.98390379744155    5.49354015381801
H         3.56779223873335    1.46492125230904    4.53816474639619
C         5.77583759717351    1.96370363622919    6.18861451920849
H         5.81153537466634    2.78070527600931    6.91205725432703
H         5.75556037406818    2.38524623913324    5.18626359523044
H         6.67634029814634    1.35739406172920    6.29700113930603
C         4.30319393812244    0.41816373620354    7.47002080599291
C         5.15149520322796    0.22775150031364    8.68378041284549
H         5.55654053420485    1.18860143849767    9.02950343288428
H         6.00348606449904   -0.41022721136878    8.41450356457583
C         3.96882831949486    0.49973334919228   10.82125427572227
H         4.83476120234699    1.09517415810276   11.14520676603295
H         3.63638268366528   -0.10340434220870   11.67038839964511
C         2.83492556439052    1.41729533119040   10.37667530238943
H         3.17631575054576    2.09388874711816    9.58617569294784
H         2.48288075039666    2.01994266928070   11.21588749399042
C         0.67633769940913    1.62128673497971    8.52588958793001
H         1.49843296663936    1.88082290375320    7.84160725498575
C         0.20012705700633    2.90123659796529    9.20886456262197
H        -0.06387170607938    3.63024040070232    8.44503626500037
H         0.96617221824169    3.34270624561562    9.84231460118918
H        -0.68968039198215    2.72326392787697    9.80691033818747
C        -0.44674794407181    0.99813311564010    7.70054990264627
H        -1.35954558623252    0.91882274011916    8.28526110669837
H        -0.17118602529404    0.00466425800410    7.34838490095567
H        -0.66270623845145    1.62306894808155    6.83645655701233
C         0.24716340031746    0.17376510786429   11.07529164009285
H        -0.27764870669427    1.12889580086472   11.18952465982485
C         0.92276625275087   -0.17759750140902   12.39800408741837
H         0.15673324267751   -0.35105221207432   13.15105142523046
H         1.56163171823135    0.62466533504590   12.76096812780430
H         1.50611037514408   -1.09203535695957   12.30874405286379
C        -0.74743132334195   -0.91963017243969   10.68779340142791
H        -0.23321793686820   -1.87395455399636   10.56693402950886
H        -1.25728000155720   -0.69061256200761    9.75565452901108
H        -1.49822802236424   -1.03328764859370   11.46646771395805
C         2.34426266551731   -2.52934997436594   10.21296989711172
C         1.17951412852336   -2.17973384928206    7.99845950543951
C         3.60942547400495   -2.75485132519252    8.10983718622524
Mn        2.59829935463412   -1.45339037639855    8.81224194874844
N         3.15306911012404   -0.21600488202592    7.30796430315998
N         4.59990494853292    1.15943365656232    6.38495751883459
N         4.35538029212403   -0.42524879201049    9.74091714770221
O         2.23133597974626   -3.30300914597285   11.05110402687886
O         0.29856080786785   -2.70358534620155    7.48908980526846
O         4.20529150798402   -3.62269716944760    7.66654125867789
P         1.45833358010408    0.38220608636419    9.68090327565918
H         4.94300864804981   -1.14046538243556   10.17320604342183

