131
CSD_code = KARPEY | q = 0 | S = 0 | Stoichiometry = C38H80Cl2N6Si4Zr | MND = 6
Zr       14.69864831499326    9.63296884041808    5.01459709570973
Si       10.78964963632298   12.21039310004209    6.80469769901050
Si       11.36083099980473    9.75156019675857    8.65728542755057
Si       18.05010617896126   10.16349070606621    1.42290202469991
Si       18.74335483571576   12.25743367214406    3.64723417445323
Cl       14.45053689985602    8.12121628297679    3.21240907734473
Cl       14.85327139867034    7.84564670526022    6.55534300405941
N        12.57981691342490    9.77993410336467    5.27019953395715
N        13.96891237080290   10.94239109653644    6.52303569194585
N        11.69509706261069   10.78113878506646    7.27032381184184
N        15.49996563835889   11.12832248113311    3.73191488046381
N        16.82286405298651    9.71038210894451    4.77608401292377
N        17.76546073101539   10.97312743759802    2.95884705825528
C        10.99816760383658    9.19765936931839    3.51022092966587
C         9.78947616950417    8.33842208856803    3.15166175368357
C        10.08141831686960    6.86777769301938    3.43010291447732
C        10.44142092817691    6.67591039637941    4.89964907599579
C        11.65365669881695    7.52914295350841    5.25885305265829
C        11.37938091704338    9.01727269460031    4.98484828286975
C        14.69250665488885   13.10666467979743    7.41014358057553
C        15.30766998745866   13.80629785386939    8.61801787888282
C        16.60863331365685   13.12375998060240    9.02977176819331
C        16.35801061020479   11.65223356250549    9.34627452981987
C        15.73159462000507   10.94012241742378    8.15098488201310
C        14.42935838481358   11.62419843797413    7.71060556135846
C        12.73627806266166   10.47372375732788    6.38541502988239
C        11.42459318163706   12.82252221210815    5.11688826750464
C         8.93196274757677   11.79950772058331    6.66160200183132
C        10.99336574723264   13.61659808166498    8.08663496331939
C         9.90489429407974    8.55773164396477    8.31836382194122
C        10.80686064531134   10.88837127346805   10.08751453922484
C        12.87141284084248    8.76621971285667    9.24601660344929
C        14.89257910780540   13.44211351207048    3.21058249501512
C        14.31987368482115   14.35920766659641    2.13456623396696
C        12.98707921267063   13.82053441147130    1.62341039044017
C        13.16290960549236   12.40913697239963    1.07074125233126
C        13.74736211398345   11.48090592435042    2.13146514988056
C        15.08081865323511   12.01656734589703    2.67239156553838
C        18.36788004956675    8.77435949051491    6.41153424217972
C        19.52936348556028    7.80759242782132    6.62168257230312
C        19.16253217315885    6.41725521651081    6.11371770034378
C        18.79709175421799    6.48121541089142    4.63441181155368
C        17.63136270307546    7.44176898553212    4.42292559200808
C        17.98134948880056    8.85096914945611    4.92926223180991
C        16.70635328127708   10.58118152427911    3.78727499847424
C        19.43827664180903    8.85422019730836    1.55859370443089
C        18.66934037739895   11.48413641579758    0.19126011465112
C        16.49215024476182    9.36779811552509    0.68878031585014
C        18.12863107475747   12.62629755010648    5.41175870829819
C        20.57500024077415   11.72804910231381    3.72000311491428
C        18.62724554925417   13.86053718219177    2.60898014411600
H        10.77846743209710   10.25031167971763    3.31412865072575
H        11.85680780353895    8.90356182609679    2.89833870254647
H         9.54094944153428    8.47682107636176    2.09728557542692
H         8.92605076202957    8.65578902268284    3.74329978132992
H         9.21218462229360    6.25830265927906    3.17293892418620
H        10.92022886011194    6.54563069120936    2.81074871713741
H        10.66280191219321    5.62516762446675    5.09573989392378
H         9.58906584332633    6.96242885103034    5.52159546419376
H        12.51071727609001    7.21628450307162    4.65108221744755
H        11.92350205839749    7.39738593044626    6.31038657373510
H        10.55497856816270    9.36170116675444    5.62670981842179
H        15.37095726796313   13.16893648817178    6.55523737949384
H        13.75527541751950   13.58964957149592    7.12727218663470
H        15.49559109442989   14.85579928680003    8.38057594672286
H        14.60359612646393   13.77469191711678    9.45356441569846
H        17.03115149663012   13.62580456901843    9.90297686786040
H        17.33010190223278   13.20134388470033    8.21466845630550
H        15.68457899018299   11.57828721125522   10.20403822421811
H        17.29596634720358   11.16327823084815    9.61677689104974
H        16.41656899487699   10.94781541900078    7.29179800194987
H        15.52129337513451    9.89572641222412    8.39968528668630
H        13.67799646349423   11.54929993381555    8.51205244418884
H        12.48059175246355   12.58604171408969    5.01089012945265
H        11.29959597401555   13.89558981444386    5.00330323888555
H        10.89617952903511   12.34245909448464    4.29879714282390
H         8.72287650911587   11.06635587602014    5.88851133217187
H         8.37534162341366   12.69832432207601    6.41667991392486
H         8.53781389866410   11.41809456798408    7.59740937008201
H        11.93625342302989   13.57083342870133    8.62056910260155
H        10.19957802720567   13.58308253804910    8.82440163751073
H        10.93641480810447   14.58700103234825    7.60259075544058
H         9.13614943770961    9.00439676823389    7.69587822167451
H         9.43846248443024    8.27847636363290    9.25851914226609
H        10.22888402704736    7.64117484986686    7.83664731651537
H        11.53315415913779   11.65808510545661   10.32427392487261
H        10.66342141157401   10.29085017087825   10.98177159157750
H         9.86465082236640   11.37911100712942    9.87237233446111
H        13.54141617567364    9.37059816837687    9.85085262150431
H        13.44748285102564    8.36034299091545    8.41961023555431
H        12.55225638639799    7.92859826777943    9.85960129168451
H        14.21404285925770   13.39946466800980    4.06664231923443
H        15.85192272948906   13.82395264838003    3.56495555688407
H        14.18579966777821   15.36482292600139    2.53941982469408
H        15.02489430025946   14.42650826158565    1.30192189818453
H        12.59418559781347   14.47888429056651    0.84542672769484
H        12.26749733399630   13.80145234752540    2.44363211029308
H        13.83484270365315   12.44122684421928    0.20923707916128
H        12.20207981977069   12.01946365392574    0.72873080695024
H        13.06014378728058   11.38314507848610    2.98332752522426
H        13.90537981147583   10.48174211697550    1.71495514778411
H        15.83130212794814   12.03446939648652    1.86687314544326
H        17.49368266593583    8.43141065188328    6.97390603120624
H        18.64160797416400    9.76962212895918    6.77118208855137
H        20.40982901743488    8.17036803386775    6.08370132492470
H        19.78162395663281    7.76282355025895    7.68329655968341
H        19.99842533555016    5.73066164398335    6.26549043139894
H        18.30651120048566    6.04398199936633    6.67839907317523
H        18.52237999643785    5.48803100456846    4.27434203362162
H        19.66464620916319    6.81937524128104    4.06134583165837
H        17.35723404222852    7.49351997801291    3.36552810826690
H        16.75823887213344    7.07980689048541    4.97800620505124
H        18.82400214012613    9.25040320482735    4.34574254704359
H        19.06376197272333    7.89184631635453    1.89125329154536
H        20.22896377710742    9.15432382497751    2.23879656347376
H        19.89048769380311    8.70269607693512    0.58294414069763
H        17.99156634005870   12.32493810437192    0.09326235499283
H        18.77304444801118   11.03393111004473   -0.79050781045772
H        19.64092660865244   11.87445949392601    0.47165722307610
H        15.85655664029764   10.09691038000465    0.19441431457207
H        15.89315088579500    8.86280778652155    1.44068327802753
H        16.76910934145257    8.62613821169787   -0.05496488680874
H        18.63447259028609   12.00440146810371    6.14407782014084
H        17.06347831726465   12.41957569467659    5.48309901167196
H        18.29672452839592   13.66288425847669    5.68961168762645
H        20.73829897279042   10.86868912949092    4.36322925943275
H        21.17761725164272   12.54333950164003    4.10706427842999
H        20.95498569367470   11.48283339856212    2.73408113298898
H        17.67895236077085   13.96522304846363    2.09295236567010
H        19.41082294917963   13.89259583633261    1.86028136438309
H        18.75577592219630   14.73434711685398    3.24093724387186

