71
CSD_code = KARQUQ | q = 0 | S = 0 | Stoichiometry = C27H37N2O4V | MND = 6
V         3.17860716983566    2.01966462047483    9.25526375740955
N         3.33443003928554    2.74876576057034   11.34150920983480
N         4.93672649557803    3.22706196274965    8.99038837071371
O         2.19201732632470    3.30332492130321    9.04018760205803
O         4.04344078531648    0.68133939948645    9.75911156345593
O         3.11065347181824    1.47469696562009    7.23182686404448
O         1.39538255069190    0.88032043335732    9.62619657104834
C         1.99135885704202    3.10533033287831   11.80626442551248
H         2.03053680742834    3.42643121705319   12.86266084079266
H         1.39414680833116    2.18780237116949   11.74165751745348
C         1.30811265541184    4.18315842679555   11.00607342561326
C         0.52636101747610    5.14111599280103   11.62556788650995
H         0.43721888525944    5.13367025592584   12.70401718812720
C        -0.15746486671489    6.10769723879686   10.89649037401996
C        -0.04361450350941    6.09663629650871    9.51353105561537
H        -0.57431887140556    6.83675941210252    8.93017572781312
C         0.73181696664869    5.15896104807690    8.85337210017327
C         1.42546656380899    4.18581771666920    9.59894607585888
C         3.68098622133735   -0.15256175381311   10.69277849654288
C         3.41395487889569   -1.50989174074585   10.43244962730125
C         2.92898057768282   -2.30926455229526   11.45201608325661
H         2.71252459398447   -3.34817479529943   11.24036215085761
C         2.70359968390043   -1.81946473724202   12.73270800155875
C         2.99607499198079   -0.48723307764869   12.98992199773673
H         2.84349871215850   -0.08866703286782   13.98483782747948
C         3.48139761852650    0.34238850944893   11.99563685964169
C         3.90593846428231    1.76117744332410   12.26503231660095
H         4.99702312890484    1.79072508418832   12.16312551651950
H         3.66401355207885    2.03350430382822   13.30589956509738
C         4.20353908528997    3.91996661951491   11.24957740586689
H         4.58012264532322    4.21444913022739   12.24413371339755
H         3.61230195789220    4.75191392678476   10.85760873673314
C         5.38664291717153    3.64794005070734   10.31718724097288
H         6.01803536959038    4.54908666767528   10.25264852359284
H         5.99525975341004    2.84202021370102   10.73599921434506
C        -0.98331911905202    7.14448495994292   11.59908924856533
H        -1.54720036571149    6.69851689811132   12.41595472944131
H        -1.67851281142996    7.61755891600906   10.91017258841235
H        -0.34108917551051    7.91925387279157   12.02007078641103
C         0.85686938701929    5.14941285589349    7.35755809414471
H        -0.10818680585626    5.33282721559037    6.88953915313860
H         1.23835169239105    4.18228065387682    7.03052313853622
H         1.54815474869920    5.92511525752602    7.02365768086730
C         3.65410826804156   -2.04946140583388    9.05223006583474
H         2.93406874078667   -2.82760079536838    8.80778119933540
H         4.65652543325095   -2.47605427057234    8.98021317538834
H         3.57322166937987   -1.24070073065153    8.32594923605545
C         2.18117199304964   -2.72195062024388   13.81239768550410
H         2.97473694481477   -3.37435058374348   14.17930628702544
H         1.38037439324342   -3.35346076306004   13.43225207759737
H         1.80203727893514   -2.14332511227138   14.65132196395228
C         4.64949698117245    4.38340277506505    8.15389204949542
H         3.93469597601423    5.04080138296280    8.64525001789829
H         4.21061375295761    4.03775338693977    7.21905268320390
H         5.56668115771778    4.95389489916839    7.93970952360038
C         5.95669051313653    2.42698863796385    8.32795217299083
H         5.57167162524532    2.11113841757618    7.35937509051100
H         6.16254055953587    1.53352693468546    8.91597151810317
H         6.88804766536476    2.99626420553437    8.18648563086615
C         0.85164115570923    0.17182169272759    8.75715134960239
C         1.18789816297015    0.06975867762699    7.39850961028623
H         0.56787946196895   -0.57880946058328    6.79448829055202
C         2.23822952027537    0.71320286855451    6.74603687371765
C         2.35129161469258    0.43840330115489    5.24880831206855
H         3.19284395432967    0.99110290764902    4.83754321460942
H         1.43829061789082    0.74300849993591    4.74285439232856
H         2.50092876255366   -0.62467000191184    5.07470713320333
C        -0.32195314056191   -0.68635502727246    9.21227907175945
H        -0.05686361054006   -1.73746638813407    9.12369423230409
H        -1.19698869584722   -0.49738919407232    8.59567656314683
H        -0.55102061767430   -0.46569349539112   10.25178132598827

