103
CSD_code = KARQEZ | q = 0 | S = 0 | Stoichiometry = C26H64Cl2N6Si4Zr | MND = 6
Zr        0.00000194631819    2.89084064174137   13.50888189938186
Cl        0.25912770598867    4.53932082486752   15.18507615624753
Si        3.93690970145006    0.25834594595331   11.85795648106735
Si        3.28794586109505    2.56522833854624    9.83715190867078
N         0.73821248638267    1.47324955448613   12.10339727846378
N         2.11908489250932    2.77700335987632   13.21949932274489
N         2.99152993663435    1.62603919468370   11.29542750344027
C         0.26827436190775    0.67677618722014   10.99115441742986
H         0.99776441130894    0.70610212439742   10.16661360489731
C        -1.06041670346539    1.29292692490304   10.53613263197974
H        -0.89216136395994    2.29617200850298   10.14477950254277
H        -1.72473260254396    1.36950758798228   11.40258672219016
H        -1.53021408163407    0.68353014815518    9.76654623569698
C         0.07142499836721   -0.77995758345610   11.42913611686635
H         1.02047593326385   -1.21345190288266   11.73384193840842
H        -0.34072154223770   -1.36861119889245   10.61258287916882
H        -0.61251158428497   -0.81783496016486   12.27462440443741
C         3.30500174464092    3.59406813785764   13.40517971149563
H         4.11371482886827    3.22233952799988   12.75900446552610
C         3.74285259845629    3.52923573190435   14.87126630823746
H         4.03574847715101    2.51720180722077   15.14336659164967
H         2.91539409049131    3.84469286629686   15.50734191369875
H         4.58821512012552    4.19288507937938   15.03656970779667
C         2.97116485305351    5.04461248475473   13.02760834517865
H         2.57349000549911    5.09241323455864   12.01420027985780
H         3.86115274054109    5.66740416893143   13.09321996601253
H         2.21661754717247    5.43727275558709   13.71206670784546
C         1.95937382191005    1.98356608205450   12.17305164687696
C         3.34199197354723   -0.23212744592951   13.60017344148002
H         3.88791979285816    0.30225324257687   14.37128221003854
H         3.46986194218475   -1.29375652299113   13.78918925884714
H         2.28901707420110    0.01172851523093   13.71503726052673
C         3.74258998972695   -1.24426703061365   10.68869276296942
H         4.53692125789085   -1.26099717242867    9.95088504055069
H         2.80026207610584   -1.24547432838175   10.15185014503185
H         3.80675616977403   -2.17455922359134   11.24515449856711
C         5.78568064810430    0.72155108736056   11.93810955022338
H         5.98534001686600    1.53062411661473   12.63412241631969
H         6.16072481194440    1.02003373808205   10.96507294376264
H         6.36583948425541   -0.13699075888194   12.26052110511627
C         3.86477328504595    1.34563715408646    8.48765568347166
H         3.15399468252290    0.54678698798730    8.30715688930711
H         4.81719447734176    0.89057014092101    8.73350746994775
H         3.99397588570361    1.88291358334754    7.55406768572458
C         4.70694353061814    3.82567220266175   10.07621856915459
H         4.38259040663315    4.72456617088115   10.58939679601953
H         5.08808405401707    4.12869965018299    9.10542855100046
H         5.53953503734345    3.40970206092263   10.63479820283188
C         1.73486433401788    3.45212853753194    9.20359831143181
H         1.08285863449764    2.78241137514708    8.64994658173919
H         2.01359061630982    4.25802374138869    8.53092277366158
H         1.15203787102567    3.89054342935463   10.00840194010979
Cl       -0.25863062311091    4.53877528443959   11.83452112430862
N        -0.73802277373117    1.47260614833496   14.91434124509747
C        -0.26833851974740    0.67583299266190   16.02650528791699
H        -0.99802255106640    0.70499820868117   16.85088933158608
C         1.06025648849570    1.29175550071873   16.48211568753542
H         0.89189590212424    2.29484242510780   16.87383434823559
H         1.72482505629897    1.36868940791883   15.61588989287532
H         1.52984043073116    0.68203624159358   17.25158573983528
C        -0.07156136677580   -0.78087506018247   15.58834781007574
H        -1.02059515811284   -1.21417643321786   15.28329629690355
H         0.34021216393394   -1.36974768550067   16.40493772352691
H         0.61263609434754   -0.81877930662693   14.74307919276195
C        -1.95917696897270    1.98297315730990   14.84477254637992
N        -2.11885148124190    2.77659894358908   13.79848081130286
C        -3.30475848364351    3.59360538884285   13.61266779780197
H        -4.11347391997626    3.22194557260555   14.25887016602063
C        -3.74246911242607    3.52847040941008   12.14655419863691
H        -4.03541442032553    2.51639590653740   11.87465906092629
H        -2.91491365831474    3.84372100097129   11.51051156190955
H        -4.58773978929532    4.19216585504451   11.98101700273664
C        -2.97092498110884    5.04421546833603   13.98998429723400
H        -2.57318050817959    5.09219758361610   15.00335842121370
H        -3.86090859666965    5.66699772344692   13.92430030884603
H        -2.21641420512219    5.43675038320207   13.30541847982697
N        -2.99131595782517    1.62557111320449   15.72249845719211
Si       -3.93706236069500    0.25794599626893   15.16036677512338
C        -3.34252247946678   -0.23287005405454   13.41812552819083
H        -3.88842681750825    0.30158431388399   12.64705792745199
H        -3.47076406367714   -1.29447928385056   13.22926989776167
H        -2.28950374362145    0.01063990201122   13.30301260028322
C        -3.74309229455236   -1.24456405822851   16.32984458685607
H        -4.53747331974219   -1.26096928453773   17.06761963911924
H        -2.80076537732209   -1.24601389875643   16.86670915245878
H        -3.80753881710614   -2.17489184516055   15.77345469980316
C        -5.78578362885082    0.72140535612489   15.08049507993072
H        -5.98547644639914    1.53046416746435   14.38447882017105
H        -6.16064245038883    1.01995281629705   16.05358557986474
H        -6.36607094346688   -0.13710211550293   14.75821477948650
Si       -3.28774806457229    2.56516098441630   17.18052971353061
C        -3.86465340003953    1.34610959975490   18.53049625596686
H        -3.15391494962912    0.54730070604517   18.71134244159280
H        -4.81710755500867    0.89098739428372   18.28488537225910
H        -3.99380538484298    1.88380165953203   19.46385846831448
C        -4.70664920308423    3.82564094181457   16.94108511701168
H        -4.38223546212569    4.72433625454051   16.42760214259447
H        -5.08779066050279    4.12902788076786   17.91176322885463
H        -5.53925633603278    3.40953554823047   16.38263387808041
C        -1.73468461640970    3.45203494002505   17.81422734521194
H        -1.08275741278927    2.78224778405241   18.36789760209360
H        -2.01353026280684    4.25782024147074   18.48699318377445
H        -1.15176524717579    3.89057549913588   17.00955865789448

