31
CSD_code = KARRUQ | q = 0 | S = 0 | Stoichiometry = C12H14I2N2Pt | MND = 4
Pt       -0.00478246451043    1.97549957778480   10.06393778243802
I         1.24872315804083    0.96963125706942   12.09109435180232
I        -0.76325949450409   -0.29303484920693    9.08097948327249
N        -0.96548555923524    2.87889345193487    8.53389219665545
N         0.54076772846119    3.80756869345717   10.73045549971447
C        -2.29438981253042    2.97495979045175    8.54304873553159
C        -3.00601716235509    3.49838140558157    7.48483795336668
C        -2.33110597322880    3.93719966286418    6.34714746731898
C        -0.94368092080535    3.82593040786065    6.35419878671773
C        -0.30470619464303    3.29640094208117    7.45717401388645
C        -3.07260364841891    4.47257957697177    5.16975922838148
C        -0.31113605059520    4.56468585651363   11.41865515156253
C         0.06166007520889    5.75830659526108   12.00040639859771
C         1.37431913854217    6.20835931703580   11.87517320478401
C         2.24870748152526    5.40849627513036   11.14441398606261
C         1.79879001774194    4.22385529654351   10.59880317151977
C         1.82559046952502    7.47144055822817   12.52585982806276
H        -2.80280620497942    2.59930590532997    9.42387505836005
H        -4.08215300531589    3.55069248553369    7.53791949656046
H        -0.36228053224515    4.13905632443564    5.50105636242789
H         0.77387595046406    3.18649864981148    7.47265855649314
H        -2.40317763672179    4.98504543148004    4.48398044296542
H        -3.85589163881907    5.15797017418236    5.48751432644534
H        -3.54906298418726    3.65059299845651    4.63525042085216
H        -1.32393518984313    4.19137935966486   11.52107345421434
H        -0.66307446677052    6.32942284977143   12.55948932870173
H         3.27973935835603    5.69753407599102   11.01429288847893
H         2.47198925095267    3.57268931284598   10.05298031493929
H         2.71709860406576    7.86344890106450   12.04317683522348
H         2.06517599920361    7.27340028840140   13.57109300067357
H         1.04031170762133    8.22370942746859   12.50110227399060

