100
CSD_code = KARRED | q = 0 | S = 0 | Stoichiometry = C53H41Cl2FFeN2 | MND = 4
Fe        8.53697129314882   12.26446086878971   10.64417837602877
Cl        9.88451988070815   13.74767825103968   11.08469626344796
Cl        8.69413592170421   10.28204995438661   11.14657400204738
F        11.14435076858860   11.38516404458048    4.30068419015853
C         6.00023103977313   13.07456706791889    7.46414569216359
C         6.67548149748849    9.87549467472148    7.30701565444632
C        10.92356689904078   15.29669925736999    7.42482205268051
C         8.11561442724010    9.72357091503301    7.73622000426227
H         8.14768463429868    9.86103349218145    8.82327722893725
C         5.67988361869369    9.98892598722394    8.26711386759823
H         5.95003880531803    9.94180036098024    9.31182768381365
N         8.10546873680511   12.39027620573803    8.78452780429580
C         9.67443063683028   13.15530326842370    7.09121786555454
C         4.76792082456364   13.49342730779758    8.02873205991067
C         8.39480934675890   15.26149560883063    7.20299732165826
C         5.58013094722902   12.01797295046519   12.83633217020037
C         8.10905786071463   15.38318387256767    5.84880816525817
H         8.79067961792272   14.97164860645570    5.11855208564099
C         8.70630371641647    8.35798809978307    7.45682437667961
C         3.67103948908829   13.89319345339948   10.12984738518666
H         3.64081141372114   13.92082340405279   11.20942017425913
C         8.91265234901928   12.12180816411055    7.66186393322151
C         3.65129877505826   13.85330566901634    7.27783402773345
C        13.36153373462979   16.58972237503050    7.03443800745884
H        14.30567814479620   17.09047975975619    6.87967518497568
C         6.07281787247000   16.54602998023312    6.35913417602699
H         5.16944888578919   17.03834726576484    6.03137428914181
C         3.79816487713620   13.78148651474900    5.87304759507553
H         2.96642701717372   14.04795485521386    5.23712499378554
C         4.79856840974018   13.50572466570435    9.44813965213927
N         6.81056944493687   12.85477597320100   10.91534730817050
C         7.50767543174365   15.79590077942353    8.12666054454154
H         7.73160494004458   15.71106755660062    9.17986367841353
C         4.98796032823001   13.37705822888710    5.32345714131699
H         5.08095705157043   13.32899693002651    4.24822766137433
C         8.60553920877619    6.11126862826408    6.60182413391054
H         8.05032571236285    5.33136047938250    6.10109244940851
C         8.94040244876250   10.82822664884290    7.11407054311270
C         6.86192565108751   12.80356374693300    8.60237841951916
C         6.13381863144182   13.06433816526767    9.79778165758256
C        10.97713134449750   16.50801236708083    6.75193568054670
H        10.07046850143622   16.96177971876030    6.38077299203765
C         9.63475894170236   14.54589292059779    7.68435760090740
H         9.54908414803442   14.43916071989471    8.77191124520860
C         6.36990619602301   14.32195119344275   12.80122943897962
C        13.31493508544698   15.38551668039217    7.71823457167661
H        14.22362883818074   14.94571321844083    8.10211516427471
C         2.53467449746916   14.26034899709077    9.38434054383463
H         1.64969815512827   14.56454165878362    9.92488907003872
C         9.90167003043116    5.87731880517669    7.02294145436650
H        10.36488325310980    4.91712077814904    6.85042870770580
C         6.32377188775872    9.92552434731191    5.96388547185765
H         7.08971609804230    9.83931027201093    5.20664342231736
C         6.95857866403758   16.02762280060672    5.43038332322991
H         6.74991703851318   16.12126060886664    4.37466711743780
C         6.25125996819599   13.06543945424284   12.18364057955809
C         2.50749242140504   14.24669367896233    8.01104538939315
H         1.61084173598563   14.53699036193263    7.48300022683465
C         4.35830830318993   10.16145015798091    7.89545941424273
H         3.59309910150262   10.25945781183018    8.65197888530220
C         5.00069558137645   10.08362642760471    5.59154768541253
H         4.73789782606038   10.11460368605280    4.54428757400788
C        12.10562691859126   14.74759473958470    7.91355015401812
H        12.06836125139671   13.81225174113246    8.45316622901297
C        10.60007514955129    6.88116262401070    7.67443539419384
H        11.60963464577910    6.70453354727444    8.01547077017396
C         8.00958181114361    7.34340968713596    6.81805863073496
H         6.99413595371852    7.50750327928021    6.48947231930763
C         5.36181173833869   10.71340125860979   12.14051965883763
H         4.84845195002910   10.87548344769515   11.19302967286476
H         4.76381049999181   10.04586582359821   12.75499557759824
H         6.31550757731560   10.23202876164865   11.92483492763303
C         5.09948398918867   12.22857336558150   14.11795599778989
H         4.58972271467521   11.42092208740256   14.62345600913339
C         6.10716490903202   13.01746015042718    6.09816038951989
H         7.01847994508384   12.70751636669617    5.61095533711380
C        10.42210066873631   11.62407003763152    5.41604808432533
C        10.00495031005777    8.10853118153450    7.89180149308703
H        10.54807210938488    8.88902267496864    8.40533619165336
C         5.25200879706294   13.44735503587969   14.76465622560598
C         6.98801539250311   15.46752442293024   12.06664013782524
H         8.02492432328139   15.24617114550644   11.81497255549160
H         6.95879683025092   16.37097433504586   12.66968736030573
H         6.44949887819534   15.64797455183563   11.13633073166052
C        10.42820247030916   12.89432277588040    5.95690286772309
H        11.02284127178570   13.66881036191253    5.49858184270296
C         4.01549634213543   10.20849333953269    6.55577399142718
H         2.98479515931258   10.34376806707118    6.26381820364079
C         9.69717817944035   10.59126184651228    5.97651075998892
H         9.73212559788581    9.60976905300002    5.53059640590810
C         6.34988652239607   16.42828789009530    7.70959735997769
H         5.66155963056396   16.82992602494454    8.43915777976711
C         5.87387045973440   14.48530740499394   14.08350054794112
H         5.97177486200010   15.44886588565994   14.56272862100565
C        12.19012158361748   17.14908266656629    6.55750776075605
H        12.21625565288744   18.09193607345224    6.03098958366543
C         4.76042485738516   13.63969282290898   16.16549951138638
H         3.93449211602198   12.96743253930952   16.38474481159809
H         4.43711327286687   14.66542258843363   16.32691745405127
H         5.56472775000612   13.42677969094974   16.87039327025674

