31
CSD_code = KARROK | q = 0 | S = 0 | Stoichiometry = C12H14Cl2N2Pt | MND = 4
Pt        0.00007478048607    0.00074174127941    0.00017700598107
Cl        0.38041656093418   -2.27544679325076   -0.10333380166951
N        -1.10770286043477   -0.25795329320404    1.58569693211461
C        -2.25008314090216   -0.94473376755295    1.51508353887764
C        -3.05958380007739   -1.14842985986356    2.61296504927460
C        -2.68954849624723   -0.63276918240281    3.85360129320073
C        -1.49549173022585    0.07831363941314    3.90925333640983
C        -0.74085893745706    0.24526648266737    2.76447699975551
C        -3.54502285799979   -0.84090094045984    5.05856925506377
H        -2.51166786097645   -1.34867516136044    0.54378998661308
H        -3.97531417843201   -1.70903765883071    2.50693129497223
H        -1.15340907963022    0.50363920364004    4.83990061481598
H         0.18572457475860    0.80753630267917    2.78323331390626
H        -3.09926493108086   -0.38619422446598    5.93868902601558
H        -3.68142600592232   -1.90543923854007    5.24253700905801
H        -4.53006179910229   -0.40500065779686    4.89854031292354
Cl       -0.38065214725278    2.27647827866313    0.10333291199400
N         1.10795678683713    0.25747205305108   -1.58559612798867
C         2.25021291137364    0.94446173621836   -1.51507076760891
C         3.05957363212875    1.14836115203221   -2.61301269241032
C         2.68950064695938    0.63271718022164   -3.85364121546416
C         1.49545211990582   -0.07839171691885   -3.90926310127224
C         0.74095537831338   -0.24554480682582   -2.76442619411990
C         3.54496301186099    0.84087269603844   -5.05861441075366
H         2.51178047749621    1.34845481876457   -0.54379380158819
H         3.97525933986573    1.70905536710377   -2.50701314937645
H         1.15330462397529   -0.50363812117758   -4.83992008047675
H        -0.18565476469779   -0.80777342662856   -2.78318661967313
H         3.09920193477311    0.38616658197445   -5.93873282158463
H         3.68135807821668    1.90541282551230   -5.24257639410087
H         4.53000773255399    0.40497879001975   -4.89859670288904

