63
CSD_code = KARSAZ | q = 1 | S = 0 | Stoichiometry = C21H39NPPd(1+) | MND = 5
Pd        1.27479475716912    3.41672442900473    3.45137501564915
P         3.37258779538937    4.36591218270311    3.19957976880772
N         1.72446144697870    2.87390113653365    5.48896978620719
C         2.28324562335595    3.67351085408747    6.30927208825651
H         2.23311709940896    3.47469912256345    7.38307058059068
C         2.28890283020918    0.81592100439896    6.70836938631613
H         3.06541631011480    0.53479536410923    6.00100961598194
H         1.86770070870219   -0.08911907490382    7.13692604056408
H         2.74449084300458    1.38523193258912    7.51399714442328
C         3.11489297298467    4.80164786314823    5.98748623202637
C         4.84185983724107    3.19587835764507    2.98822418648598
C         3.59701487531676    5.67256199849508    7.12234599369450
H         3.77153732694338    5.11049288951770    8.03883941159694
H         2.84371019592443    6.43585724898531    7.33627612413492
C         3.68900772798608    5.16017536828485    4.81423163831812
C         4.58894883329400    6.66894721173059    1.80949726955105
H         4.41618029320663    7.37078019052406    0.99440441374519
H         5.45020794877258    6.06351487872364    1.53958346035483
H         4.82784667777745    7.25183091791879    2.69033811701322
C         2.99081113718501    5.25189066073720    0.58390170425380
H         2.44565856233310    5.99369407911474    0.00401667764227
H         2.37963453647211    4.35604381159426    0.65503244958677
H         3.89233880516922    5.00519218936942    0.03079371147852
C         1.17621307274804    1.60562898130531    6.00043798995041
C         0.02525302236675    1.87616554169833    6.97867961070133
H        -0.67684114438867    2.59291770340596    6.55639485154201
H         0.39205648336353    2.27321867171325    7.92170948662923
H        -0.50333640790448    0.94999693509885    7.18522898273639
C         4.87450370343923    6.29883051308669    6.56322570407055
H         5.06776617293029    7.29149836605878    6.96192477076875
H         5.73077870163174    5.66488272768573    6.79794479375012
C         0.67754263501731    0.76725579229049    4.81065194507900
H         1.29946782144289    0.94795860381389    3.91656510590824
H        -0.36450234483636    0.98426429263353    4.58610851773811
H         0.74669107116325   -0.29047445393811    5.05172872564302
C         4.63454877341657    6.31493684346545    5.05002114385931
H         4.13980243567307    7.24929685262270    4.77247733694513
H         5.55885622131992    6.23577459227718    4.48431843560005
C         3.33249545518837    5.81584194002676    1.96921002813196
C         2.16787233385390    6.66762940845198    2.49654501575420
H         1.80907052782918    7.34412952636386    1.72354880760328
H         2.47347732155726    7.27082097739029    3.34834785255559
H         1.33039158704308    6.03048894657298    2.81909953878132
C         4.88229143261564    2.73058396955838    1.53511662041882
H         5.54162210972106    1.86939076483576    1.44356767504043
H         5.25946646583148    3.50864420001234    0.87818254598396
H         3.88680050577261    2.43143349995560    1.20244173746400
C         6.18579383937536    3.77329364676917    3.41571935481911
H         6.96425360848846    3.03762064507319    3.21910747755353
H         6.19633692391376    3.99148112920304    4.48091089601053
H         6.43777855917567    4.67386173577289    2.86310585207223
C        -0.93596958181597    3.49421583012130    3.69285106307691
H        -1.55946244775138    2.95958907771136    4.39771181532609
H        -0.94706407273554    4.58427129057855    3.79310241794121
C         4.49129838058464    2.00282425228873    3.88009003961851
H         5.25135368368973    1.22931057773758    3.78780953999792
H         3.52795658539334    1.58025408178223    3.57474094294373
H         4.43483652972385    2.30541145889400    4.92519477745855
C         0.27154102654229    3.62941706499413    1.61270842863382
H         0.05572055618808    4.68610951586259    1.45191871517853
H         0.57578111825841    3.10321631124642    0.71011222094549
C        -0.59025825615163    2.91565510903999    2.48957680967963
H        -0.81915155461163    1.86996845966413    2.29412160941516

