31
CSD_code = KARTUS | q = 0 | S = 0 | Stoichiometry = C12H14I2N2Pt | MND = 4
Pt        0.00090226554680    0.00082585481397   -0.00072246243037
I         1.72271618762771   -1.43559436485508    1.33991409457934
N        -0.13273748469162    1.24360130301876    1.50354290792439
C        -1.02466940110473    1.03942892980941    2.47203479426512
C        -1.15402523095975    1.89249920439791    3.54657026822852
C        -0.33151162515482    3.01393804867431    3.64173177936868
C         0.59410333417932    3.20929778798706    2.62156728827498
C         0.66161231396934    2.30861343626948    1.57796150563317
C        -0.44784217822330    3.95360205753535    4.79410894760901
H        -1.65284693134266    0.15826575669815    2.37395953965593
H        -1.89074072423366    1.68805473639019    4.30758318722116
H         1.25951006935130    4.05816534212930    2.63696063406567
H         1.37472160019546    2.43920969490696    0.76861212577010
H         0.23688980191885    4.79041529946074    4.68809321244691
H        -0.22447305885727    3.43272450022976    5.72442780080116
H        -1.46493205882563    4.33602041675854    4.86596627268770
I        -1.71779083836841    1.44034720498624   -1.34155538143949
N         0.13392627608607   -1.24260160603709   -1.50446226942760
C         1.02546290172128   -1.03958293111353   -2.47351122436861
C         1.15386152176394   -1.89354968957441   -3.54743518089468
C         0.33074794206343   -3.01465073818769   -3.64131880869749
C        -0.59448559197708   -3.20877539399003   -2.62057156527512
C        -0.66100827057147   -2.30725433780709   -1.57765199494593
H        -1.37380892533246   -2.43687039807783   -0.76785339369400
H        -1.26033335806854   -4.05731673793759   -2.63498272284334
C         0.44604212989784   -3.95526353661322   -4.79300318872954
H        -0.23904328779302   -4.79165986256392   -4.68597619931621
H         0.22244743105717   -3.43497890879925   -5.72359836654797
H         1.46291854610014   -4.33820691371451   -4.86505293862928
H         1.89030228092416   -1.69005426407870   -4.30895898048830
H         1.65408436310595   -0.15864989069008   -2.37637968080109

