91
CSD_code = KARVII | q = 0 | S = 0 | Stoichiometry = C40H45NbO5 | MND = 5
Nb        4.24167078768288    3.95625160385965   12.20958607554753
O         5.95039559821869    4.01008197961435   12.83505365364777
O         2.56783729757730    3.86419681261441   11.51308424960519
O         4.06309645446253    5.86974096258736   12.58369090623578
O         4.94347050085930    3.76963424471927   10.44626659353774
O         3.73682399638049    2.85899899505511   13.62821442701971
C         7.16023644846153    3.93175488080609   13.36565884892596
C         7.80870579711635    2.68244222178109   13.43880198279802
C         9.07464933737563    2.60781256465565   13.99395311509828
C         9.70656108095950    3.73621725027719   14.48576776754730
C         9.05858973809097    4.95633257382409   14.43747793126918
C         7.79051452527553    5.07501363180821   13.89043564616488
C         7.12294569747423    1.45722262215067   12.91280358507525
C         7.09566543765625    6.40635018260712   13.87028449115106
C         1.32073502585624    3.80813250425098   11.06525736061585
C         1.05736371569956    3.66959498381633    9.68917720215703
C        -0.25690087052188    3.64100856197558    9.24890507033408
C        -1.31167339113884    3.73882560612673   10.13648566831517
C        -1.05333525536743    3.84801579546012   11.49084669780558
C         0.24453815651957    3.87585902038276   11.97336659671803
C         2.17946188962784    3.54179132786139    8.69934090033310
C         0.49908879663167    3.98370061929312   13.44782339922826
C         2.92764840239514    6.57778690810387   12.61879786539988
C         2.31307419448840    6.82461110830468   13.85893403253012
C         1.14375310024199    7.56780628855103   13.89788110363840
C         0.57364198555554    8.05308802234712   12.73388244266032
C         1.18399279840052    7.81143868668877   11.51626623289162
C         2.36346043263993    7.08679665041366   11.43683542914147
C         2.94251447902929    6.26243321540268   15.09927515355428
C         3.06152684774201    6.86947490168132   10.12704463815703
C         6.14760802166014    3.45519800765310    9.96400982115416
C         7.14196909405445    4.44000985216312    9.83155762918169
C         8.38918964213070    4.07190208376684    9.35190763987917
C         8.66207286560294    2.76410735041697    8.99255041854362
C         7.67517132035716    1.80125492516843    9.10483064926540
C         6.41724006245288    2.12682801302234    9.58763841704723
C         6.82843558210091    5.86705095396090   10.17269858249656
C         5.33387658215063    1.09586384592435    9.72605546346114
C         3.75412900163001    1.80728186774758   14.44451604705173
C         4.46770661139997    1.84938759035510   15.65549993690663
C         4.46409974907209    0.73011458618957   16.47442943937233
C         3.78280356939245   -0.41797504970428   16.11553817673250
C         3.08814724366957   -0.45885210663126   14.91908990624772
C         3.05800669908637    0.63893069132135   14.07554534824967
C         5.22571588883870    3.08257879722616   16.05565149080045
C         2.29366844883306    0.60944960550180   12.78407250889728
H         9.56764738790261    1.64760316350907   14.04410220376618
H        10.69461494493840    3.66192051397799   14.91420113358905
H         9.53860112820864    5.83927301183070   14.83499474603054
H         7.47839341993759    0.56779453640387   13.42873383891506
H         6.03953536319109    1.53077207302155   13.05047188398405
H         7.32936235481373    1.34521801626357   11.84681550371663
H         6.04572279863875    6.29267247752987   13.59930353412129
H         7.56973749861417    7.07105369830667   13.14764593285865
H         7.16082281349907    6.87933624654558   14.84974263789235
H        -0.44826716235064    3.53821075771204    8.19018925702561
H        -2.32939586537157    3.71949846416097    9.77696288907894
H        -1.87168087641989    3.90855877162231   12.19391147367865
H         2.03209841232710    2.65867586223764    8.07742115120667
H         2.20541127682476    4.41040986106439    8.04098982922232
H         3.14002216467605    3.46129114366907    9.20706500966152
H         0.36287990723456    5.01513961318296   13.77418411936704
H        -0.19983941923578    3.35793078895924   14.00129960297636
H         1.51755877882340    3.67673070928848   13.68861441429019
H         0.67267874854313    7.76075863463914   14.85167725467524
H        -0.34363285010473    8.62069135182313   12.77648452425797
H         0.74075854087925    8.19303055000250   10.60769627999510
H         2.30827859419844    6.42874388882976   15.96664153204377
H         3.91195536533808    6.73102327062400   15.27712198557224
H         3.10898642021810    5.18674013909376   14.98074169714508
H         3.46977945509426    5.85707004428401   10.06779258897078
H         3.89270412700089    7.57132425034731   10.03110672906748
H         2.37593661237744    7.02947261511472    9.29786548118334
H         9.15762228863169    4.82589233822282    9.25902378474916
H         9.64024202743557    2.49640987540333    8.62301249272303
H         7.88136144023100    0.77933125658405    8.81900224729633
H         7.74339094443061    6.42009887527933   10.37328826229391
H         6.17343422866032    5.92347681787125   11.04583604390568
H         6.31435280641378    6.34324430767102    9.33518342706107
H         4.82172820665537    1.20897832052226   10.68961366168268
H         4.59026633646880    1.21969002212076    8.93680138664661
H         5.74391708194400    0.09069327297340    9.66058542776541
H         5.01165668393766    0.76573457325151   17.40517674510831
H         3.79382428955099   -1.28053730180730   16.76444239282272
H         2.55676610107708   -1.35527587949011   14.63342086499233
H         4.82941110157465    3.48700064818546   16.98714223729039
H         6.27821801255834    2.84530669467684   16.21061345140252
H         5.15655725408162    3.84982292456823   15.28370760810152
H         1.30331309665665    1.04852530335449   12.91766850085753
H         2.80857962367507    1.19261352354187   12.01163853309946
H         2.16999514839614   -0.41269576809515   12.43307515548418

