55
CSD_code = KARVEF | q = 0 | S = 0 | Stoichiometry = C18H27CrNO7Si | MND = 6
Cr       -1.15603913023579   -0.06774427892965   -3.68913889992341
Si        3.46730165184689   -5.47828069639095   -3.50156443513935
O         1.08084086327019   -0.11633138457872   -1.52539383138462
O         2.94321147737062   -4.95444535855706   -2.03893704340998
O        -2.63000779154891    2.00454254294296   -2.07989299076672
O         0.72882446785981    1.90831435806668   -4.96149068170592
O        -3.17223842883164    0.91588736097198   -5.69394886514956
O        -0.31204973650360   -1.92669022278831   -5.90041303046705
O        -3.10049704487581   -2.19485372831351   -2.80634825608763
N         3.04219305208693   -2.18981892203157   -2.11339488859349
C         0.31163744120229   -0.78871822203363   -2.39934837120316
C         0.67376952539476   -2.15875736620882   -2.45063427147676
H        -0.12871991763877   -2.79523782128762   -2.78802355220666
C         1.84015128890853   -2.79338790613887   -2.05658569688684
C         1.77642437455488   -4.26970959872156   -1.64385349356803
C         1.67041887039726   -4.33655143122370   -0.10871985617322
H         1.63826821559477   -5.37769776252335    0.20196161543619
H         0.75941905581348   -3.83891023966027    0.21188337055143
H         2.51516007216089   -3.85777987555936    0.37603519873271
C        -1.97280599100898    1.19852978526398   -2.57763953690301
C         0.03921400767142    1.17444534693540   -4.39809136540098
C        -2.40604687127777    0.53172414491664   -4.92349051967965
C        -0.57006185950711   -1.24963262450262   -5.00428183999645
C        -2.34606843725291   -1.37429944652331   -3.09098694553052
C         0.81697812711124    1.24469630539056   -1.23621999970030
H        -0.21701573335410    1.34702510588762   -0.88269051890697
H         0.93420706861415    1.85131828922763   -2.14385938518133
C         1.78868453593083    1.70061293212189   -0.15670719873414
H         1.56501086815658    2.72446823713251    0.12753496136108
H         2.81383259587122    1.65457207176349   -0.51695873410371
H         1.69853117249581    1.06247150667463    0.71881006629151
C         3.24369236497923   -0.99415608539316   -2.88821476159683
H         2.47547321996626   -0.91107910575629   -3.65737575834587
H         4.22434405868716   -1.04739823499804   -3.36530131943114
H         3.20863637121286   -0.09488520204725   -2.26769358547303
C         4.20439079936553   -2.56108468938888   -1.34245031133088
H         4.13720463465244   -3.57967102902569   -0.98191056741162
H         4.31904311338138   -1.87549988513670   -0.49576677878059
H         5.09494550557531   -2.48253947673549   -1.96782926846533
C         0.56188241478544   -5.00177890178006   -2.22455939673330
H         0.52015497352090   -4.88331888542065   -3.30312123302843
H        -0.36536128241129   -4.65646785031109   -1.77883988859849
H         0.68011710665671   -6.05907114260260   -2.00111971629956
C         2.61957581573768   -7.10002238519716   -4.04367965725095
H         2.53943438927903   -7.79980881343673   -3.21632290142331
H         3.19352207327565   -7.58917954606655   -4.82427150231564
H         1.61930773241281   -6.93774559066492   -4.43447475788961
C         5.30355520216947   -5.81090456421996   -3.13544722094830
H         5.42344947392954   -6.45577586187878   -2.27122417948065
H         5.85828234152384   -4.89842510413591   -2.94296270361327
H         5.77017048637703   -6.30469312335011   -3.98039394951155
C         3.25522637303698   -4.17161047931229   -4.87686963342766
H         3.96007486850346   -3.35293346504605   -4.76645088857895
H         2.25733685200470   -3.74060407582800   -4.87290498401745
H         3.41681332108424   -4.60300760359503   -5.85932604011911

