171
CSD_code = KARWIL | q = 0 | S = 0 | Stoichiometry = C70H90Cl2N4O4Zr | MND = 6
C         4.25398854096409    4.08015645445213    2.01478651776218
C         5.51964160197285    3.42397203181306    1.82902714139146
C         6.43691095468809    3.91207396621312    0.88301002286645
H         7.37299435616355    3.39187773998221    0.74082742146703
C         6.16656356181080    5.04224820618174    0.14824678790714
C         4.99332678137351    5.75325694099452    0.36555738759884
H         4.78747843320621    6.66794507602688   -0.16876453164369
C         4.06294182307408    5.30786541910984    1.28752775199935
C         2.87870508895535    6.08964878998785    1.56441132081377
H         2.25893193957274    5.70934274232360    2.38282853690633
C         1.46896899436224    7.90298316542127    1.16510901540995
C         0.60330583841493    8.16272967786908    0.08610798712791
C        -0.51774949631388    8.94405298373531    0.29506250739019
H        -1.19294084154035    9.14503631849804   -0.52185570158990
C        -0.78753483024890    9.47461475405962    1.54513525041659
H        -1.67411079985841   10.07156115007140    1.70034496473368
C         0.09128182167990    9.25703294326538    2.58673996480758
H        -0.11579645202472    9.69644512832472    3.55101163354623
C         1.23185982809017    8.48122688713394    2.42314818627886
C         0.93769175279131    7.60848873273910   -1.28080096136561
H         1.61763789586447    6.76150742256806   -1.14489130667517
C         1.67960303886622    8.68633494396876   -2.07682040485915
H         1.95853984287506    8.30841529126746   -3.05806069598595
H         2.58092055289513    8.98549553229357   -1.54797770122435
H         1.04855262739219    9.56312829207089   -2.20739881156692
C        -0.28833171322918    7.12156306860961   -2.05237546647697
H        -0.90812836172301    7.95484962269823   -2.37389124990025
H        -0.89095626328222    6.45576009327560   -1.43912643627162
H         0.02830730649689    6.57901227928104   -2.94065860522919
C         2.20887040446456    8.34952197754077    3.57038139791400
H         3.10442840982526    7.82512191887130    3.22023075052681
C         2.65112471663382    9.73058895953557    4.06325750101077
H         1.82206605157980   10.27393659238372    4.50862426726722
H         3.04360944941646   10.32015482887432    3.23726750904635
H         3.42931881684329    9.62348954674005    4.81567006389250
C         1.60774212952244    7.54398801446106    4.72456903285965
H         2.29400351516575    7.53238418444729    5.56832753042492
H         1.42016671087452    6.51378993431738    4.42746668921777
H         0.66769385417470    7.98086774770821    5.05348427512931
C         5.93027434642190    2.30394807621543    2.61631763277408
H         6.92727680646573    1.91270841181662    2.36236387149321
C         6.02215951565266    0.76620428495375    4.31114568816451
C         6.87454744703582    1.16591111452477    5.35239926265662
C         7.66415929610885    0.20913484142304    5.97489498559748
H         8.33467175964436    0.50322902794865    6.76616562017052
C         7.61339641767816   -1.11653726867211    5.58703256925496
H         8.24035147496551   -1.84750451094578    6.07510130591233
C         6.75207611216684   -1.50325384256087    4.57850580602281
H         6.70642061484987   -2.54220341689960    4.29058638356960
C         5.95286755344822   -0.57574550582940    3.92036825520674
C         6.93618727853999    2.61820702870490    5.77209102895369
H         5.99090606078658    3.08325039150007    5.45929637004577
C         7.07392404667225    2.78541847745636    7.28664803566639
H         6.34726925174500    2.17203959520636    7.81467425326350
H         6.90805710503287    3.82544100310059    7.55526251844775
H         8.07158018886560    2.51132527479516    7.62160767798750
C         8.09868390674131    3.33594524284105    5.07680778949664
H         9.03578364127947    2.82435249413699    5.28834952377227
H         8.17701740430607    4.35940210266530    5.43936835802086
H         7.95769305104586    3.36363156092896    3.99843640880862
C         5.00432674245451   -1.02597918046235    2.83613878441440
H         4.51619051765317   -0.14413830258337    2.40488444405111
C         5.73324509392985   -1.78620192451185    1.72518968955899
H         6.53003579914834   -1.17794465053467    1.30089950755061
H         5.03630493873193   -2.04191352215658    0.92996333413163
H         6.17011212445467   -2.70971867966816    2.09744911764180
C         3.89387827134218   -1.87092647453259    3.46728965884814
H         4.29996250615490   -2.74246421485367    3.97734485687388
H         3.20272205644038   -2.20869535379358    2.69872226070404
H         3.35082033506736   -1.24577343843957    4.17751270356754
C         2.10433500925793    1.09447666471928    1.27329558183527
H         1.57784159190083    2.07069820129446    1.21259951414198
C         3.27774428963903    1.13792514627042    0.27313458779722
H         4.01923084298068    1.86978544318686    0.58788743110996
H         2.91345880447830    1.41479048840333   -0.71391824003607
H         3.74949080683641    0.15948777988744    0.20803854982223
C         1.12553865986926   -0.00798846430239    0.83272656995619
H         1.63405741754455   -0.96954916851465    0.85266483750164
H         0.76492969351587    0.18267487296484   -0.17506867998858
H         0.27936897374818   -0.04666432471369    1.51182746809156
C         2.78175547563177    4.28033385539420    6.10109866773856
C         1.35801991545920    4.15482915227285    6.25453215040576
C         0.68178056965918    4.92107648227338    7.21903492516694
H        -0.38534714027479    4.79843025513360    7.33508131191878
C         1.35292756206916    5.82520772946470    8.00813610213517
C         2.71416400438895    6.03493044232628    7.82847432204368
H         3.24698216303309    6.77363811046225    8.40718258196443
C         3.41770368342753    5.30516512524399    6.88705478812279
C         4.81718439619572    5.57613177652090    6.64726152482021
H         5.25564966859975    5.01493927627475    5.81565292208703
C         6.81427797702080    6.67832737157709    7.11171482509983
C         7.70292342465315    6.52833921529430    8.19271655124740
C         9.04349949337796    6.80896776600102    8.00573792743866
H         9.73710388182213    6.69090969798750    8.82330957814298
C         9.51118077713853    7.24070578819491    6.77604310709097
H        10.56307153193644    7.44257587683181    6.63734389870336
C         8.62652561331654    7.43337482865329    5.73451368057953
H         8.99848096404877    7.79443188124403    4.78734977382528
C         7.27058292061287    7.16690027679628    5.87653092741762
C         7.16192304999789    6.09539828343713    9.53713584629496
H         6.21780426802300    5.56791416122255    9.36732431745015
C         8.10279013042756    5.16251715808473   10.29841556142838
H         8.42610474465568    4.33936049788154    9.66551137306049
H         7.58890753256408    4.74971720173364   11.16398343068253
H         8.98149155226447    5.69422661049032   10.65495425116538
C         6.86027489068093    7.34720079903052   10.36665010379761
H         7.77009505299154    7.92114081340153   10.53077270125445
H         6.44348838546293    7.07065660842420   11.33270413709725
H         6.14457824679864    7.97634064968829    9.84378883736204
C         6.32984621234655    7.48102077936581    4.73434967637672
H         5.29745855760544    7.33540944098885    5.06984307271160
C         6.47026508397317    8.94568633948944    4.30895846253428
H         6.33166991296439    9.60375030560517    5.16432151896403
H         5.72067319495775    9.18699946039901    3.55858085271098
H         7.45091074797089    9.13962668357166    3.88275026814804
C         6.57480232524809    6.55724270946482    3.53890671770833
H         7.61305031838544    6.60464850702790    3.21873101810651
H         5.94491022317578    6.85396298205608    2.70327143919880
H         6.34077907303916    5.52376754429927    3.78796680914359
C         0.56219687825464    3.31226211792209    5.41717573369185
H        -0.51671882864661    3.35369565266346    5.63136286244132
C        -0.08250754127619    1.98039314249977    3.67094723716550
C        -0.69566872578527    2.73054122764064    2.65497074341836
C        -1.78812572496633    2.18949890133333    1.99124567917578
H        -2.27724163187954    2.75825335490689    1.21694454435808
C        -2.27195208689769    0.93808765101758    2.32146032215733
H        -3.13448112768073    0.53874283391732    1.80944552337398
C        -1.64505828286742    0.19779326823388    3.30528764342242
H        -2.02557895683133   -0.78067983570412    3.55251583949405
C        -0.54323676350517    0.69758646759157    3.98967536261194
C        -0.17811039459576    4.10755451622563    2.29987833110889
H         0.86592684204279    4.15678765200872    2.63888281297448
C        -0.98832381698733    5.19621182190088    3.01311950192767
H        -2.04534388363446    5.09422044547286    2.77442940756038
H        -0.65743850124199    6.18158139893220    2.68948081839030
H        -0.87225903580467    5.13346972627666    4.09285379348683
C        -0.20347602429205    4.37036119586227    0.79249646834831
H         0.24102135795067    3.54310776596405    0.24372860702058
H         0.35975070492474    5.27287626492389    0.57020028903127
H        -1.22087271585650    4.51780498646056    0.43782447368192
C         0.11679103238355   -0.11604842408153    5.07777291446854
H         1.11125911384547    0.31276857931686    5.27286461314395
C         0.32885417051325   -1.56784670499736    4.64236355017958
H        -0.61055397503500   -2.11255389406803    4.57529136914151
H         0.96267608004377   -2.07755219599943    5.36407292909463
H         0.82461954614263   -1.58935961075343    3.67590872676056
C        -0.73271433211283   -0.05705911797627    6.35269406770191
H        -0.78341062222151    0.95849691589891    6.74049879554796
H        -0.30624033631486   -0.69776858962256    7.12139093685580
H        -1.74692985850619   -0.39795307403412    6.15036025682863
C         3.63975992917063    0.73478558660350    6.73414434290980
H         4.46469010055612    1.47380170175977    6.81590981600076
C         4.18050193688362   -0.64363165271112    7.15147254844832
H         3.37841570644869   -1.37651962795558    7.09459670551823
H         4.56061546137756   -0.61028274605199    8.16957989964251
H         4.97870635620446   -0.95036743181354    6.48300502773908
C         2.53562678276114    1.15075434746763    7.72504135727773
H         2.08270059253126    2.09063906703976    7.41613550413890
H         2.95536438733432    1.27563492413954    8.72085740054817
H         1.76636170254133    0.38315609505330    7.76222156516299
N         5.29725500228574    1.76676249642553    3.60091055241011
N         0.95978827765017    2.58323320860872    4.43324981377109
N         2.58156512363389    7.12596484678171    0.89482221524244
N         5.48243984171043    6.39116910825220    7.35695230146591
O         3.32925167997886    3.61213435248751    2.76142836391869
O         2.52930710887808    0.87958089080674    2.57392441590107
O         3.46948898821883    3.52975586452192    5.32963264220506
O         3.17638095966187    0.70286217755962    5.42692455329000
Cl        7.31101570528195    5.60699412168662   -1.02073022347608
Cl        0.49164197210900    6.73727103064262    9.20039958478212
Zr        3.09205380360301    1.97767011524544    4.01564263159908

