52
CSD_code = KARYAF | q = 0 | S = 0 | Stoichiometry = C23H24ClNO2Ru | MND = 9
C         8.47356319681085    5.41719845114046    7.19264795114899
C         8.48922007474254    3.21978503908955    6.11066413766588
C         7.74132436340369    2.04770519786413    6.11505125476768
H         7.09988512534452    1.84194633604562    6.95762042942822
C         7.84158261170589    1.16670734302691    5.05468073001869
H         7.25796166001225    0.25820898659274    5.05737587016552
C         8.68726879912057    1.44656443582483    3.99445043412135
H         8.76290023621009    0.75828733612882    3.16612365719945
C         9.45383845582503    2.60134610198526    4.00862050118785
H        10.13604354205691    2.80697542456511    3.19752485925681
C         9.36945491895238    3.48642472005884    5.06636577100191
H         9.99327370517019    4.36558159200954    5.09791486804254
C         8.31892384867826    6.17406806472550    5.93265400254551
C         7.36119463013683    5.82843892314278    4.98210794352101
H         6.72269632359616    4.97298576361422    5.14359067175587
C         7.22287189637779    6.59315750064101    3.83927863555404
H         6.47964445612662    6.32497841248947    3.10336628452187
C         8.03001894058666    7.70209624566261    3.63778630849413
H         7.91978749671585    8.29231071823916    2.74021647967035
C         8.97054797616903    8.05762359967744    4.59035405639522
H         9.59413635328443    8.92571830574368    4.43806733720237
C         9.11083829546057    7.30259390934129    5.74022603192418
H         9.83743388805762    7.56193010269455    6.49495395515027
C         7.30195204825056    5.21453885863584   11.37484221789598
C         7.67779294121686    3.86818443212284   11.50520697193828
H         6.92781474919100    3.08799973349115   11.45379181300595
C         9.02378823493347    3.49977637972330   11.76094784730310
H         9.27192448740084    2.45613042737365   11.92079070317444
C        10.02485005497813    4.48714614646518   11.91339359287828
C         9.65915871390117    5.84840995744394   11.77224249286605
H        10.40108266951640    6.62297564613098   11.92973666237199
C         8.33124309616024    6.19415125391632   11.45654391377973
H         8.06275492961774    7.24368065228832   11.37780616268866
C         5.87115112202873    5.62392618425999   11.11534142419409
H         5.79916293920670    6.71023206823122   11.24706657461547
C         5.50223959358857    5.29248852790052    9.66615902344416
H         5.61888945122765    4.22663137870932    9.47881050233276
H         6.15720525042050    5.83560071106191    8.98530183012936
H         4.47274530189965    5.57635831272448    9.45855576572978
C         4.90231068786792    4.95972675387846   12.09626268749003
H         3.90707408400391    5.37991248881664   11.97175498067887
H         5.22088359407939    5.12726960739115   13.12329291283137
H         4.83988364863081    3.88852227867670   11.92226200399640
C        11.44223359840201    4.10952530136989   12.21117117600939
H        11.90941006017790    4.84064562901406   12.86803369199560
H        12.00420055957591    4.08661257888891   11.27374641524100
H        11.49901039506140    3.12299693928203   12.66540870484031
N         8.38690784141893    4.09232063984863    7.20875558241210
O         8.25513194558628    3.48892376455785    8.42555117923252
O         8.61250735464265    6.05785150407297    8.27311209912823
Cl       11.03013754228654    4.45355913532064    8.79519435666955
Ru        8.99194231016424    4.75047019808230    9.89227454038782

