50
CSD_code = KASCAL | q = 0 | S = 0 | Stoichiometry = C19H20MoN2O7S | MND = 6
Mo        6.08278796687267    7.35611554021295   10.10176632525434
S         8.38108073741821    9.27384000610524   11.38417548884119
O         5.27117891982586    7.99953207866518   11.37947329775812
N         7.72851976530496    6.59221766264923    8.92416085504056
C         7.36664679947670    4.91144915659919   10.30643477109054
O         5.07409327193685    6.87397168322324    8.89211381456402
N         8.06367396033721    5.32033696765442    9.28909469647169
C         7.56938436733493    3.54814844492199   10.81973079285804
O         6.48419173514273    5.66883824889933   10.87559371336181
C         8.56948767686945    2.72077072767193   10.31170450262143
H         9.20714888966104    3.09490849290059    9.52721076655702
O         6.72802132710362    8.97719388339967    9.36973427140189
C         8.72955499866493    1.44500273454458   10.81756209834720
H         9.50476176816320    0.80324455829239   10.42539789185164
O         7.02449817580052   12.24414283540501    6.06121857802567
H         7.36356799789017   12.36875557787145    5.13562607345876
C         7.89652614026109    0.98452091926748   11.82625361653449
H         8.02440550109313   -0.01438041156055   12.21673970386740
O         8.00816509071725    7.82690933903905   11.32701891160076
C         6.89918279876424    1.80335461007054   12.33234858661949
H         6.24989797274078    1.44216847572821   13.11599334026057
O         8.15866407210718   11.64236003083244    3.83668118716276
C         6.73357252143037    3.08149893473726   11.83376467843032
H         5.96019089480818    3.73666234656593   12.21043850370594
C         8.17487338265662    7.02687810492942    7.78593497042725
C         9.02079568678606    6.14222728222196    6.91546258988746
H         9.25596436219144    5.23657044751580    7.46726509907709
H         9.94127326007211    6.64693197838583    6.63049846812897
H         8.47114241976527    5.86967780236703    6.01627979118106
C         7.84994949531471    8.36723148958595    7.33603501909189
C         8.22649492754975    8.79747539986430    6.06687787018681
H         8.73977095936734    8.10612038280372    5.42119812330621
C         7.96732330174313   10.07715203462572    5.58128639206828
C         7.29028507038129   10.99726948573688    6.42990615569080
C         6.89243223419969   10.57964471042033    7.69359582699936
H         6.35417585276604   11.26820452806304    8.32815005465052
C         7.13453157360248    9.29052979082982    8.16123389425287
C         8.35929893831646   10.49931112378145    4.23663614496583
C         9.02078435990436    9.49361454129998    3.33042565296623
H         9.21964274652269    9.96618700974460    2.37171586177478
H         8.37013587358083    8.63568229682630    3.17919208792836
H         9.95967336522143    9.15371979223583    3.76143483886025
C         9.63287668045910    9.28357547971491   12.74062587791648
H         9.24759963388628    8.70481457905531   13.57267035558696
H         9.83378672436034   10.30666489841849   13.03580310831770
H        10.54107880749693    8.82244326561484   12.36660520895450
C         7.06347724132980   10.11328683265899   12.32217400586032
H         6.12554809143758    9.66520924054384   11.98049665360178
H         7.09428339604457   11.17059308708250   12.08253319387769
H         7.17729826530488    9.95442157197323   13.38842628874741

