73
CSD_code = KASFIT | q = 0 | S = 0 | Stoichiometry = C23H41BN6PRh | MND = 6
Rh        5.59078079437212   10.83801204395784    4.83647677076781
C         4.18007440818473    9.63122086939735    5.83709925354019
H         3.18228094414156    9.60978455533261    5.40507717044917
H         4.53763102883090    8.63667356492940    6.08473413082272
C         4.53366975252035   10.73760671732627    6.65510693238789
H         5.16914042364701   10.58592074771082    7.51809301613427
H         3.80108948880564   11.52181010884154    6.81626548779699
P         3.95323452262991   12.03039321588840    3.78203076841021
C         4.56516656489546   13.41502747073843    2.70288441445229
H         3.70643096785818   13.96239186294039    2.30527296202265
H         5.12515711562061   14.09680143735516    3.34466901322748
C         5.45836254802463   12.94404913162333    1.56389617600784
H         6.28899476744041   12.36075959629751    1.94916843584029
H         5.86288831681036   13.79941079605791    1.02342965703286
H         4.90780759483688   12.32502158690412    0.85873690949248
C         2.65679205147456   13.01435876120281    4.69931246194012
H         3.17490743147876   13.53284832196430    5.50938507990822
H         2.26859476636642   13.77975992467586    4.02191180540908
C         1.49469345595732   12.21019212009451    5.27077961397292
H         0.83560527333436   12.86750351563729    5.83750093628643
H         1.84319939441944   11.42665757516913    5.93646973247292
H         0.90856523352242   11.74713787142780    4.48119747333241
C         2.90400024990203   11.10685017596998    2.56091066348837
H         3.60952213734857   10.58684485219009    1.91180602737461
H         2.36854543610421   10.34229935646507    3.12875158473357
C         1.92153833507814   11.90424710688311    1.71024367717221
H         1.32681419682388   11.21794513157859    1.10813263211103
H         2.43906779910142   12.57575549165814    1.03043883269964
H         1.23859164705930   12.49086509160652    2.31889939815569
B         8.42423255395677   10.84881003482340    3.39112970264207
H         9.50796765632279   10.82362807000727    2.92547434781918
N         8.05494847320681   12.29153757295956    3.75411204279075
N         7.04289126296377   12.51445634293928    4.59890330283310
C         7.07905739843937   13.78800595605096    4.96631952686485
C         8.14466641808877   14.41867614589999    4.31491850033804
H         8.43901142315229   15.44606816314069    4.39399704592874
C         8.74479238284650   13.43235977941442    3.55444483903997
C         6.12993548986136   14.34572473931091    5.96694501789590
H         5.53554550777447   15.15625368604294    5.54538506907824
H         6.67711650157865   14.74037051132126    6.82230804064767
H         5.47247754914057   13.54482822198991    6.30305514809671
C         9.92066290583012   13.54348798455742    2.65182122941502
H         9.67263313507210   13.18831785110637    1.65310723974446
H        10.75192755591699   12.94612856015150    3.02354090233291
H        10.23585815767816   14.58194320067077    2.59016090014222
N         7.42788118151311   10.20261887073310    2.41904165548895
N         6.26301875086372    9.73941620928836    2.89312685345251
C         5.74235260356247    8.92600974058673    1.98592974356911
C         6.58384153560117    8.88791594602026    0.86709971646732
H         6.43876434699182    8.33144462160285   -0.03726369722407
C         7.64896164963189    9.70906280313180    1.18264952167582
C         4.51351762957648    8.12732874564175    2.24390864222546
H         4.77148638954635    7.06895354492290    2.28833224341308
H         3.77615039756495    8.25740651334530    1.45301372400849
H         4.09003399848477    8.42535660338419    3.20012966967625
C         8.83853934140426   10.04620147091537    0.35722094891430
H         8.73242977456166    9.60712200011874   -0.63145600903385
H         9.74956071848768    9.66319660723250    0.81500262936056
H         8.94159190050319   11.12538049383283    0.25632393373528
N         8.37913369362907   10.02360453261168    4.70548706590059
N         7.31475500896826    9.88851757401526    5.53291322070421
C         7.70382075027094    9.13029623817263    6.55970049170384
C         9.04023086773009    8.76601371059953    6.38302164935148
H         9.63270841970609    8.15793070815745    7.03678306451989
C         9.43375388955051    9.34856771675389    5.19833148091522
C         6.92060612349460    8.72646293282379    7.76247328273463
H         6.83971432869216    9.55748125698097    8.46287774709047
H         7.44953022709911    7.91786303006000    8.26346448660629
H         5.92335632182817    8.38355246094669    7.51083794341175
C        10.77417979865473    9.25612097827452    4.55997621167068
H        10.70177450390215    8.82124755216522    3.56488745244974
H        11.41473287737478    8.62600639921335    5.17225862503732
H        11.23300195238794   10.23917491625637    4.47052382911720

