113
CSD_code = KASFUI | q = 0 | S = 0 | Stoichiometry = C57H49Cl3FeN2O | MND = 5
Fe        5.47816554308000    9.66527472932951    5.71899866636097
Cl       -1.78267655890112   10.07878931738773    7.75155538159054
Cl        5.97478724020374    8.36267666691740    7.29526054470502
Cl        4.87811360364093   11.57521538006359    6.12990646442717
N         5.86476534943889    8.57782443680962    4.30955625330303
N         3.49925348802189    8.99723658156089    5.35614535982233
C         0.56536041122575    8.76483694833766    7.59539076871235
H         0.20942034670776    8.18342631511435    8.43165372616142
C         3.56615609146454    8.13580282799026    4.37650799439512
C         4.84541784427899    7.93542085183396    3.76376074450581
C        -0.21978628692923    9.77574872202330    7.07249354172794
C         2.58755766420904    7.31578803344159    3.66778859249038
C         2.40189650432399    7.12434200088397    9.06363184798548
C         1.95100473308772   11.11426224195642    4.26890066492267
H         3.03742476786473   11.22403847877197    4.37735467374382
C         2.25792327208686    9.26189351920930    5.96009018530842
C         1.46653132932148   10.30303116563627    5.45265405273140
C         0.42319189561243    9.86576280399149    2.69018952574827
H        -0.39431114271868   10.04506772969443    3.37316241660496
C         0.22338293219778   10.54831152484803    6.01487776335557
H        -0.39417084809132   11.34607952608625    5.63251976218617
C         7.14315329380244    8.46976413569510    3.73057169846209
C         1.24076947954369    7.07909308948470    3.76620549318578
H         0.63178722653492    7.55239330123582    4.52026545829549
C         4.68982300718187    7.03237856822698    2.64351960281916
C         9.24784081773679    7.34152846143254    3.50927973452776
H         9.89104439203188    6.51028790875885    3.76135342815919
C         1.81462197826043    8.50346294045246    7.05274133456219
C         3.31575749975465    6.67361517294026    2.63821657506878
C         2.27854036504455    3.96623144240353    5.03025277343565
H         2.18091109058703    3.11604255609809    4.37122752161938
C         2.72881629384197   10.10455980613335    2.10710077785333
H         3.71555474816110   10.48197127529478    2.33430557751767
C         1.66634960537748   13.33216468518201    5.36245429429133
H         2.30772436660409   12.95569220855810    6.14515720511782
C         3.62076836958139    5.26384351981318    0.73979235729811
H         3.23694712871376    4.57888699762490   -0.00207979340703
C         7.97067483619466    7.38634091755332    4.04933723299475
C         1.36557590822033   12.51091875077728    4.27947532220353
C         7.58622982873795    9.46806770675636    2.85413421943312
C         0.56351905236824   13.00878173535143    3.26344694413170
H         0.33082635131805   12.39586234564115    2.40504660458455
C         2.67469551832469    7.38500582846525    7.59905431638667
H         3.71890434411244    7.70914858959827    7.53134049935492
C         2.52676087190801    6.16808698495347    6.71638297435710
C         1.27930164361260    5.61047783199167    6.46380593256535
H         0.39966327620821    6.03865373699219    6.92294322068623
C         2.06031238611326    5.87544741098503    9.56050861086606
H         1.96861143850908    5.03337308769547    8.89061127131401
C         0.20386538952250    9.15590010527776    1.52356295639363
H        -0.78682251297815    8.79034929304046    1.29613416467011
C         9.71529093094593    8.33125033962203    2.65768836957332
C         2.74606647610196    5.80115958402533    1.71262625983895
C         5.50946656974646    6.49922638478158    1.67656657269782
H         6.56068408880424    6.74172981598408    1.62323421050348
C         1.69007599936750   10.34982659679721    2.99403083943256
C         0.64996423835415    6.19084547911829    2.84778731028553
H        -0.41010118261738    6.00298393949934    2.93595591195480
C         2.53817062241262    8.18496999113084    9.95505533579762
H         2.81957771298145    9.15779492422476    9.57776058954529
C         2.31723312624778    8.00575800501525   11.30661498699655
H         2.42390735290651    8.84003535193647   11.98470478126148
C         8.86528089324059    9.38097351930361    2.33147955511075
H         9.21059331507264   10.14866448861735    1.65275964949737
C         4.94869647718177    5.61477404079853    0.73651946173020
H         5.60075885403390    5.19781588515518   -0.01793366202440
C         1.35971394228046    5.56586770286417    1.85428603371040
H         0.86246832474044    4.89395993058871    1.16958930544754
C         0.34848591670341   15.10144329374573    4.42300177058097
H        -0.05040405450632   16.10369626517960    4.47920069511384
C         0.05767499327650   14.29679687967263    3.33670177387279
H        -0.56761941128054   14.67002186555393    2.53831569892829
C         1.24948096754846    8.90705167686920    0.65111227545843
H         1.07962346003939    8.34281179535133   -0.25372383906011
C         7.46800131710952    6.28962041894552    4.93279524688421
H         7.08678468963143    6.69632029088745    5.86913424708961
H         8.25818378642003    5.57522190308041    5.14881042986283
H         6.64552626358911    5.76469328367659    4.44639923519678
C         2.51451177726739    9.38230124982974    0.94664549900138
H         3.33624859577283    9.18734737415596    0.27241638667939
C         1.15729447939629    4.51240100528930    5.63112092618318
H         0.18293373354141    4.08337720648380    5.44687213656549
C         3.64826645176427    5.60553246214372    6.12182203860679
H         4.62105009351547    6.02816414634859    6.32526431748732
C        11.09786609271669    8.27287995244487    2.08246290996812
H        11.61180272490365    9.22312082464029    2.21908795777513
H        11.05193735076663    8.07278270223167    1.01218375708004
H        11.68303287848163    7.48724843692557    2.55319067224461
C         3.52414476612013    4.51511316495071    5.27857199447442
H         4.40270160557683    4.09014637346560    4.81440066213249
C         6.67686773469916   10.59402375134042    2.46387234962128
H         6.00743416524421   10.26607586081565    1.66697013042407
H         7.24713345813466   11.44437562002525    2.09795765171714
H         6.06667845587017   10.91099418873921    3.31234372760474
C         1.96315649838877    6.75745196375665   11.79269744949931
H         1.78942582784449    6.61470615043367   12.84921164779648
C         1.16009078610671   14.61537558911738    5.43552419492013
H         1.39988259335903   15.23995317205058    6.28353710873626
C         1.84120560440356    5.69468591693672   10.91657213877010
H         1.57449896324340    4.71549759833314   11.28774201639207
O         7.65067717368702   10.47856283477624    5.81404980954670
C         8.09648373694932   11.81179673266936    5.62453044898456
H         8.04987944117874   12.35575435129261    6.57779639541628
H         7.43589956091372   12.29463593915010    4.90675492078755
C         8.73130666260857    9.81048656265453    6.45089498989356
H         8.59251698006868    8.74050861235745    6.31142049056991
H         8.71763701569632   10.03734042803201    7.52477517818772
C         9.54519526881793   11.67494324188132    5.14586271245000
H        10.14786595637810   12.52614831108239    5.45359380488005
H         9.57498328601477   11.59798171085009    4.06024051688919
C        10.00525122614090   10.35668286719375    5.79013821867393
H        10.37085051089976    9.66238672248471    5.03611361520224
H        10.78856669816040   10.51174312637106    6.52884094003660

