36
CSD_code = KASJUJ | q = 0 | S = 0 | Stoichiometry = C15H14ClN3O2Pd | MND = 4
Pd        4.02073632798492    1.56076810026824    9.52189828659542
Cl        6.25551896778440    1.30316101512299    9.70044227611498
O         4.18620208844186    2.58099208583167   14.45945970303945
O         3.28542409974653    0.17651600746437    7.31515951987510
N         1.92173149541664    1.82578103606486    9.81457863601462
N         3.85555702707439    2.06824073220735   11.65545672223866
N         4.97734710556144    2.12098810297935   12.37634986812686
C         0.95855717718688    1.66428543772726    8.91709592569470
C        -0.38679617125395    1.78767690522239    9.22818369342356
C        -0.74636753872707    2.09143006862142   10.53384111742369
C         0.25208171259547    2.24827798763604   11.47618879835990
C         1.58758496008268    2.10611619270437   11.09287289010461
C         2.65408921235259    2.24255364833086   12.07242547074963
C         5.12512295717472    2.33146643047754   13.72885131038783
C         6.52910064882311    2.24565700243044   14.20389807904324
C         7.53835626647993    1.56811659246522   13.52029412956067
C         8.81653523832803    1.53035485187603   14.04804540038901
C         9.10252752927851    2.16115568658337   15.24824705821511
C         8.10067485026405    2.82611732874499   15.93667623465099
C         6.82049617270083    2.86284436790453   15.41998183531063
C         4.02451078681574    1.06494750007520    7.65114691312584
C         4.91814781766331    1.84744805462925    6.72230312225189
H         5.92615390797074    1.43576067950646    6.80593096128971
H         4.95873027857300    2.89787021074426    7.02779697451473
H         4.57679934419748    1.75486751345849    5.69121053201460
H         5.79468875129247    1.94234625399777   11.76947065901819
H         1.27220093543629    1.41237612586111    7.91194685313323
H        -1.13270920454081    1.64702656726215    8.46297626996594
H        -1.78424061858705    2.19722777985559   10.81084798005901
H         0.01756516447343    2.47387146350375   12.50483393197707
H         2.39481129615077    2.46809357654854   13.10170056326093
H         7.34535980934966    1.04887023969215   12.59336926236881
H         9.59442674073447    1.00286422279838   13.51703045119862
H        10.10468297055598    2.12892121490677   15.64920608417247
H         8.31786593735488    3.31301603466582   16.87552855241780
H         6.02382595525927    3.37089298182618   15.94255393391827

