34
CSD_code = KASKAQ | q = 0 | S = 0 | Stoichiometry = C14H14ClN3OPd | MND = 4
Pd        0.32365336104498    1.11797131309453    4.84502799022312
Cl        1.91513805811876    2.51333509596637    4.18138135828777
C         4.56895765845831    3.34546735484070    7.17059076050476
C         5.67281680200924    4.17775123569599    7.22198187315597
C         6.07370993963840    4.74354496703672    8.42193142262628
C         5.37496570793300    4.46602353855971    9.58583277424536
C         4.27616230853950    3.63034124955056    9.54435085991001
C         3.85569740058513    3.07247200300202    8.33741487149494
C         2.66817355753081    2.18231541972922    8.38636977183181
O         2.28131741007279    1.63884421787918    9.40298992141037
N         2.02910802772163    2.03983045011415    7.17647463600159
N         0.98035546298394    1.27073013865709    6.86852184188895
C         0.30952390114224    0.51729427353572    7.66822429168860
C        -0.78193262959539   -0.23779366510947    7.08812026155106
C        -1.58105731641444   -1.05925171781649    7.88797653866511
C        -2.61844037509848   -1.76950562399398    7.31862375721126
C        -2.83502203399369   -1.63933269826556    5.95196793562543
C        -2.00600058363909   -0.81042546916239    5.21731903224563
N        -1.00091875477049   -0.12261936320146    5.75420337239591
C        -0.36040660266031    0.89860565612360    2.92810823067704
H         4.29511821637726    2.90407162082515    6.22375366030454
H         6.22390421581324    4.38480861765431    6.31707381907722
H         6.93388391225987    5.39585480535637    8.45017391469347
H         5.68830384437009    4.89962715049772   10.52381007255638
H         3.72090096449843    3.39654665848985   10.44049498493325
H         2.35612117702294    2.53445656956734    6.32767797475703
H         0.52011447532767    0.42411910177939    8.72822532009717
H        -1.37356739736307   -1.12565864440910    8.94454503254274
H        -3.24536962859243   -2.40904275028394    7.92036225735702
H        -3.63354116854507   -2.17294183756796    5.46238749894987
H        -2.15458852105984   -0.69392812575826    4.15196360810160
H        -1.40251883222475    1.25220934205968    2.87932288893003
H         0.22533876354268    1.46507942581727    2.19813070855409
H        -0.32230132103594   -0.16530031026248    2.64686675750072

