63
CSD_code = KASKEV | q = 0 | S = 0 | Stoichiometry = C26H30Cl2N2O2Zn | MND = 4
Zn        9.48022460018866    7.91334038350885    7.57187744880436
Cl       12.31448740736801    3.56806324661934    2.69808060108889
Cl        5.83620262532195   11.49935735743279   12.52272222528042
O        10.46437852701359    7.99344724815907    6.02266299547583
O         9.78022637249175    9.01304733092903    9.01233793214135
N         9.89632980460401    6.02700273972922    8.00994020160601
N         7.60117371015456    8.45504422644458    7.25750673913162
C         8.86614909650160    9.55394023097218    9.73790734187404
C         9.23609734453545   10.10735553255856   10.99303362290882
H        10.27856999866687   10.04664744376146   11.26614672709451
C         8.32784538242160   10.68860060453473   11.83336369533132
H         8.63649356833484   11.09351380751484   12.78485275044005
C         6.98327090404531   10.76057594319596   11.45450468899145
C         6.57523389916378   10.25535841583132   10.24943548324848
H         5.53556442517151   10.31924717981043    9.96350039781563
C         7.48737553676659    9.63660788119991    9.37169658635263
C         6.97019360882668    9.14827198083710    8.13713028230094
H         5.92138500771753    9.40156994753551    7.94236036753342
C         6.92782514508877    8.11180947751131    6.02469673101489
H         5.84907998382189    8.31814988443044    6.11699556079984
C         7.13139252017503    6.62742441262838    5.72088360850932
H         6.68249749258387    6.02988612454782    6.51806047886404
H         8.20218003563317    6.41893497949551    5.69985416937263
C         6.52464902762769    6.25314584847422    4.37273755831275
H         6.70000359516735    5.19366567087012    4.17783545957204
H         5.44424735197422    6.41560902837822    4.39783679886476
C         7.14158371934977    7.09909749043936    3.26447249146811
H         6.70523134549752    6.82778291251950    2.30147731800514
H         8.21563237668370    6.90529548219480    3.21709355183019
C         6.90398863715647    8.57852942890014    3.54706970648583
H         5.82930706210114    8.77851216505485    3.55206554291646
H         7.35331725693450    9.18690094902378    2.76060336421068
C         7.50493382956067    8.96961538225279    4.89260177724474
H         8.58638769301011    8.83038039347444    4.87154294917061
H         7.30535822545958   10.02231951377115    5.10548594750846
C        10.86571357674983    6.97834375605908    5.34227173853279
C        11.33558906779816    7.19230469424107    4.01866449493183
H        11.33465139939865    8.20952363622357    3.65774614884013
C        11.76750933473902    6.16975514575272    3.22072350559038
H        12.11165220827619    6.36124790063377    2.21600385330224
C        11.76476954335252    4.86045513253640    3.71307881117127
C        11.33556529560357    4.60033445886655    4.98664908438441
H        11.34143298087958    3.58675326956643    5.35998479086769
C        10.87042506831667    5.63325097790231    5.82456514264010
C        10.45570521287732    5.26652224725178    7.13735540610088
H        10.64305203533438    4.22025285503689    7.40623841545238
C         9.62037032747748    5.49317820187559    9.32523122204244
H         9.72624909584721    4.39616788666207    9.31400700217337
C         8.19568134354916    5.85615619621770    9.74393222342065
H         7.48648356901607    5.39835411426291    9.05002695960660
H         8.07932102192003    6.93939716596789    9.68535057197691
C         7.90872726480181    5.40085446696004   11.17095845472345
H         6.89248782414924    5.68878022706605   11.44585856980356
H         7.97673941718789    4.31173135904961   11.23005883365225
C         8.90965772773030    6.02697463398220   12.13569700859092
H         8.70032529634037    5.69842868418110   13.15531422001380
H         8.81186045415758    7.11450636089988   12.10268229202553
C        10.32847419223888    5.63202312201000   11.74081060752656
H        10.43665268421754    4.54674883154412   11.81468366526408
H        11.04781475455537    6.08667542669622   12.42371960959231
C        10.63151099001687    6.08189185486583   10.31604135127586
H        10.58416321255030    7.16957559932995   10.25126131596368
H        11.63769798379774    5.77096114982019   10.02571159896366

