51
CSD_code = KASNAU | q = 0 | S = 0 | Stoichiometry = C24H21Cl3NPPd | MND = 4
Pd        0.04030878234318   -0.63935805040690    2.98870542722800
Cl       -1.55214176482995    0.50540061792670    1.76729430959392
Cl        1.64469049311853   -1.78534016029003    4.12945991015982
Cl       -1.57699509447655   -2.82844862385303    2.92327727028908
P        -0.43193718680114    0.73687526003904    4.65582270740876
N         0.46775391679435   -1.74135365344474    1.14701087779723
H        -0.43519278583607   -1.48031655053674    0.72747596493918
H         1.23277460331546   -1.38157195013551    0.57496681794905
C         0.59636176234820   -3.13029441054472    1.38095223408137
C         1.65187741873395   -3.86753728296670    0.85769271618557
H         2.39395689126028   -3.37047280263392    0.24896866741399
C         1.76725015121433   -5.21913541281523    1.12835953082824
H         2.59722892600400   -5.77461500915314    0.71995792922554
C         0.82590689948083   -5.85509344700002    1.91915042642018
H         0.91579726034262   -6.90931437392910    2.12878971329941
C        -0.22531205313503   -5.13527832675242    2.46176638743627
H        -0.95220105761814   -5.61010035627132    3.10037569521554
C        -0.33279414950758   -3.78270924184874    2.19717075109665
C        -2.20787421760514    0.61993005110410    4.98977136451152
C        -3.13143874698743    1.62466855357412    4.73760381581070
H        -2.79927076836583    2.58924963334691    4.38169058908780
C        -4.48095428294179    1.37191810793443    4.91964953583613
H        -5.20199920777931    2.15073146380536    4.71873315993308
C        -4.90952290928548    0.12445918726977    5.34093093542310
H        -5.96443297974713   -0.06711676557904    5.47077191069809
C        -3.98959444917650   -0.88612977935576    5.57939585579199
H        -4.32578059497181   -1.86364893165546    5.89284626342079
C        -2.64246898812424   -0.64207985427009    5.39819030646422
H        -1.90442143778074   -1.42245165519706    5.56581685294926
C        -0.01771689905329    2.44682177320562    4.21810154539172
C         0.73442080342215    2.67299936585091    3.07064670041362
H         1.02249256979970    1.82189030319037    2.44845069429775
C         1.09854412837976    3.96286973856193    2.72798421678709
H         1.67660174352589    4.14309775461068    1.83371798938001
C         0.71827994528724    5.02414526903516    3.53321533185442
H         0.99691110538402    6.03211316159051    3.26328781223620
C        -0.01245691826345    4.79800256711449    4.68971757967799
H        -0.29657400286453    5.62806009164836    5.32004068010732
C        -0.37558277565039    3.51083071614423    5.04033882332908
H        -0.93165586247845    3.32286476707271    5.94925737381841
C         0.37750056580212    0.60138689823783    6.27697345150807
C         1.76750181148531    0.68403125239436    6.27385409759007
H         2.28679774432368    0.78679072404943    5.32917579273461
C         2.46696798096320    0.61091944997150    7.46202045844356
H         3.54534532148712    0.66561457874724    7.45809393965113
C         1.78283232621978    0.45850596777226    8.65845351088814
H         2.32918501207193    0.39496545677958    9.58799039482317
C         0.40049320207006    0.38298755971303    8.66381929529639
H        -0.13189485007276    0.26511194280433    9.59650748377999
C        -0.30715455256250    0.45390904118190    7.47583114544553
H        -1.38671282927270    0.39371538401732    7.48292375605941

