40
CSD_code = KASPEB | q = 0 | S = 0 | Stoichiometry = C17H17Cl2N3Pt | MND = 5
Pt        1.24739901365555    6.83720750095378    2.97637358001762
Cl        0.00009845424847    8.75736567582191    3.42019173158014
Cl        2.52351000744937    4.99263805482262    2.31581601737940
N         0.60571430237374    7.17635119091825   -0.89739064173101
N         0.50805845384718    6.64904614279917    0.30194084639732
N         1.21338598838696    7.36187384546836    1.10572098874988
C         0.61214422331301    5.88605545937979    4.79058939110918
C         1.77211193568868    6.58244784443097    5.04258281385286
C         1.39844560963188    8.26544094367756   -0.86905503752535
C         1.79935874055429    8.39234152319727    0.44846910293841
C         2.63594750613427    9.37854400370052    1.11440913140748
C         2.67583233916630   10.69330274156764    0.65587444378842
C         3.43635616928511   11.63569641205463    1.32140054338708
C         4.16290653767111   11.27744576594674    2.44518534750908
C         4.13727545926505    9.96843059441370    2.89787145642767
C         3.38172091852279    9.01856513288961    2.23661376469627
C         0.02297365119031    6.52119746768776   -2.03766367656738
C         1.05803110518588    5.65181445909057   -2.71702388622713
C         1.31523383916809    5.78154836148501   -4.07356064723690
C         2.27029688165153    4.98255876353050   -4.67906985989267
C         2.97966325781314    4.06032495891738   -3.92942254432849
C         2.72923615704605    3.93276743729561   -2.57293120656224
C         1.76954989755186    4.72300135975211   -1.96696591188852
H        -0.35133842024236    6.30668640837820    5.06540715145655
H         0.63927608444017    4.81041406293401    4.63705645577404
H         2.72297377653198    6.05800060648755    5.10036541957498
H         1.73208803023556    7.55655373185240    5.52350010926003
H         1.62930413594030    8.83960192053016   -1.74079227565287
H         2.09062217204402   10.97723677335185   -0.20613112298214
H         3.45562935469528   12.65562104187186    0.96729958058888
H         4.74893838889079   12.01862137735530    2.96752369875056
H         4.70918008514552    9.68598409223043    3.76864825426031
H         3.39800485945705    7.98180690654029    2.57239480407964
H        -0.79932670615775    5.90603930861407   -1.66160573013886
H        -0.36786525126777    7.27289220048492   -2.72732287126448
H         0.76440506037517    6.50283435871942   -4.66065887451488
H         2.46218470928775    5.08558973172391   -5.73661024820023
H         3.72781960817382    3.44196273890989   -4.40198866339009
H         3.28072876318222    3.21750778864491   -1.98251756134716
H         1.57582490047175    4.62148131164273   -0.90872387352301

