36
CSD_code = KASSUU | q = 0 | S = 0 | Stoichiometry = C16H16CrO3 | MND = 9
Cr        3.14820543000096    6.07557459041200   14.70767723575879
C         3.39262432289928    5.20221290479774   12.63167785229692
C         2.39741767978896    6.20521480183507   12.57432001655146
H         1.43504185702526    5.97404071038985   12.13207918924638
C         2.67167973515837    7.49966102740997   13.01308510219036
H         1.92515046463978    8.27799987155025   12.90385598190158
C         3.95520053149366    7.82989584026199   13.49322916069229
H         4.18651750399987    8.85450139677297   13.75725106621702
C         4.94062138610698    6.84531097446327   13.55226812295844
H         5.94833177375935    7.10377605598629   13.85658723171971
C         4.66446675353037    5.53643992496507   13.11007963009461
H         5.46038057446712    4.80159417575960   13.07803327465458
C         3.12034233352904    3.84360455463119   12.05680269578378
H         2.11121223043225    3.52182849495905   12.32644043586605
H         3.82865655014694    3.12236095412638   12.46740004443112
C         3.24075579662146    3.85681755899966   10.51383755624235
H         2.50285276349834    4.57612400967742   10.13483160747145
C         4.60605728408140    4.32254469459209   10.09659917639557
H         4.81472846506206    5.37328105804388   10.25268368037450
C         5.52678982612233    3.53342669952125    9.56896734025704
H         6.48621016432802    3.93755496816038    9.27465031801690
C         5.32319843344161    2.07443297652659    9.30883580199610
H         5.17562876583043    1.93232456399246    8.23264201066680
H         6.22620394471336    1.52288655476107    9.58177760947065
C         4.11922156194859    1.53258662852423   10.07376305656463
H         3.85511276719943    0.54175354730985    9.70011512519781
H         4.37392652798499    1.42986996484725   11.12971524501032
C         2.93390050103052    2.47957234472749    9.91913188134730
H         2.04856501561074    2.05787585902900   10.39898733172492
H         2.71530098734361    2.59705609952989    8.85526771249747
C         4.09544946266302    5.60560186970463   16.19146777411928
C         2.18062610074391    6.98178033325489   15.95782347496523
C         2.10035776848342    4.70430479859708   15.28627430022966
O         4.62606448190365    5.29643870830864   17.17042426123631
O         1.57353201782314    7.49367234817498   16.79718381011243
O         1.44456823658773    3.85317813539676   15.71343388573991

