42
CSD_code = KASSAA | q = 0 | S = 0 | Stoichiometry = C14H21BCrN2O3 | MND = 9
Cr        1.97587374024394    7.47390426887359   10.23298046365526
O         1.50277697876945    9.50241121667308    8.11341565002189
O        -0.54166384445294    6.30135703549720    9.14448069017295
O        -0.11060438033302    9.29277540897391   11.31194223765326
N         3.27197705958574    7.54961154645276   11.84067149203118
N         5.32737437077824    7.77077810799504    8.61498571381399
B         4.45823795900339    7.25258080250586    9.60529351437640
C         1.71159848703115    8.66984057870439    8.89097893006427
C         0.46926472193843    6.69223564428217    9.54674576185688
C         0.72878390767381    8.57793153511270   10.94712831981702
C         3.98826915253434    8.08259952585676   10.81448448143012
H         4.29508755085037    9.10535381587899   11.01877274959770
C         3.75854703512804    5.88299068908844    9.59916274402135
H         3.86285801696786    5.14644611297631    8.81280997073936
C         3.08263148508372    5.43569112455628   10.72051621102998
H         2.71258003772416    4.41543135034769   10.77493044188824
C         2.84444172055655    6.24686082699608   11.83812625654958
H         2.43774662571724    5.85560438806654   12.76194015641722
C         3.11252618842241    8.29883030465246   13.06961918390031
H         3.94793375650735    8.10566930887653   13.75111938473420
H         2.18129050381023    8.01989675352738   13.56510609832053
H         3.07520246716025    9.36708557631012   12.85380051801190
C         6.02452356701543    9.03496813662391    8.81685542563710
H         5.96476711099822    9.26071972628311    9.88445980735327
C         5.35603146421610   10.18507015224885    8.05527378549434
H         4.29629691927304   10.22206388840748    8.29687254921516
H         5.45774673351413   10.05750759819352    6.98079429637221
H         5.81323128291640   11.13243724964410    8.33059564862566
C         7.52176503274029    8.94970870112465    8.49382960780572
H         7.96571081514875    8.09838510856458    9.00502891062143
H         8.01546966376081    9.85517012661218    8.83897844681049
H         7.70959374342532    8.85279758171635    7.42808861448977
C         5.44187022391737    7.21503612630027    7.26834924588139
H         6.01565277381044    7.92943717284677    6.67162816590801
C         4.07985722305338    7.07826369967570    6.58079384459724
H         3.53297894988694    8.01459714101114    6.65299451908792
H         3.47208496370577    6.30179614577479    7.03114600018558
H         4.22342932512803    6.83878666495366    5.52928530603867
C         6.22261968892597    5.89664273250741    7.25077045222897
H         7.21496647000939    6.04197929380426    7.67045814802678
H         6.32846614425870    5.54472501804397    6.22729361991362
H         5.71950436359301    5.13022181345766    7.82969263560267

