85
CSD_code = KASYIP | q = 0 | S = 0 | Stoichiometry = C39H41CuN3P | MND = 3
C         9.77661920326511    0.35192598834218    3.40152898468806
C        10.95849173350832    0.52479046957687    4.13354447356820
C        10.93245163602326    1.35851738484044    5.37747263907309
H        11.93839016921122    1.52966891738530    5.75319079655907
H        10.34133761683139    0.87431190837131    6.15527235542543
H        10.45884682614656    2.31887333695297    5.16079451884170
C        12.12417512222373   -0.07501673479393    3.69206659808368
H        13.03197395785303    0.05415068110237    4.26579353466109
C        12.15363119504809   -0.83976686840584    2.53440581113353
C        13.41658160760100   -1.52504789470929    2.10354316303086
H        14.28799300538166   -0.93176343271266    2.37215555147594
H        13.42159196633302   -1.69492903650874    1.02910433490594
H        13.50503781683867   -2.49405878060157    2.59723546076578
C        10.98574356257803   -0.96507803927607    1.79649919134742
H        10.99620583490977   -1.53782710516391    0.87849235748529
C         9.80105378917528   -0.37613807857472    2.20559698217230
C         8.55140293007591   -0.49443969576309    1.38542113435755
H         8.04483317342635    0.47044575079741    1.33888947888166
H         7.85918759420920   -1.20697749473938    1.83450673296644
H         8.78122280967050   -0.82879687117485    0.37606075963208
C         7.80738318971095   -1.09243975658835    4.85122379995453
H         8.79093459544832   -1.46300892138226    4.57114247084244
H         7.04882358051116   -1.69682964529861    4.35501308996894
H         7.67830155371406   -1.21366269132495    5.92577178079965
C         7.64277974203823    0.36176658783866    4.47255679222164
C         6.44555005591277    0.95558442214452    4.88457769251952
H         5.78498245640781    0.28311369940921    5.41442782154907
C         5.97408280267369    2.26368691276998    4.74702853663501
C         4.62629781934531    2.54616080179100    5.37197852938190
H         3.89591434820102    2.79546903383378    4.60170685295041
H         4.68400110409018    3.38045105291536    6.06849470250310
H         4.26524693875172    1.67479361180387    5.91007986561628
C         6.13106226064965    4.56936726688277    4.07313664647996
H         5.04015623685968    4.62717337208872    4.14137700206899
H         6.43385640623896    5.02007296949731    3.12070510389028
C         6.75403591400776    5.40027612839574    5.21442576456806
H         6.41188625139151    5.01771766585507    6.17597137463865
H         7.83924184656024    5.29005500004725    5.15134524737008
C         6.37737582289755    6.84150709095726    5.09342412527949
C         6.95277293373769    7.65114941377722    4.11451552978383
H         7.69472405789425    7.24381699595732    3.44484589258696
C         6.56356886992596    8.97436135691786    4.02896530406121
H         6.99846952790209    9.62734197792354    3.28507291717116
C         5.60755751841296    9.44976260289691    4.91568900536289
H         5.27635455432651   10.47631584757932    4.88514240275267
C         5.08905557538797    8.56453762825160    5.84646363892979
H         4.33812858314601    8.87883998797899    6.56105175563845
C         9.32326629549700    4.49098065906545    0.66471082711001
C         7.98424833031317    4.33605124170001    0.32382495457540
H         7.29797950298028    3.95108653676499    1.06824908183775
C         7.54678317600700    4.65576001704983   -0.94916310819699
H         6.50585336718676    4.53309929475344   -1.21015468680397
C         8.44767688357691    5.12812344052643   -1.88920134782088
H         8.10938646486086    5.37743704663189   -2.88416712339033
C         9.78603861834815    5.27472691528825   -1.55756635495193
H        10.48783057323567    5.63776894507969   -2.29450930034524
C        10.22751137164928    4.95722208019685   -0.28643374328289
H        11.27273866161640    5.06193736614754   -0.02870310498544
C        10.17016483733028    5.68639604058609    3.12092111555865
C        10.19869407287623    6.88737735363059    2.42134916746223
H        10.03554304481969    6.89745077221878    1.35313930304801
C        10.42694482292493    8.07496842692657    3.09577644446656
H        10.44889766895125    9.00507009037028    2.54636554958057
C        10.61812450143363    8.07733787508177    4.46722226204611
H        10.78883767701642    9.00762553535365    4.98799931479218
C        10.58018495003968    6.88472465976226    5.17248692921806
H        10.71926785294360    6.88379734523984    6.24361111390941
C        10.35173221405378    5.69766936209645    4.50354449283670
H        10.30474718728592    4.76095412042824    5.04583601154292
C        11.47280582667857    3.37673318368317    2.09498236559808
C        12.57496470699607    3.72458509662551    2.86604854289646
H        12.48373992468831    4.47969941391903    3.63425106048936
C        13.79470802660629    3.11158281006909    2.64046820523345
H        14.65126318514346    3.38957706137644    3.23795057676046
C        13.92156846212560    2.15135906447828    1.65191153154952
H        14.87844151583538    1.68365068494558    1.47266435831196
C        12.81886982928748    1.78665268377869    0.89561956890401
H        12.91302679305508    1.03091564706809    0.13069394745484
C        11.59724598794297    2.38672307289726    1.12266457305769
H        10.72851342332576    2.09683682396925    0.54695099298208
N         8.59862625311803    0.98302759266448    3.82352405003190
N         6.62627306465249    3.21331764107816    4.10362187884541
N         5.46028355156671    7.29918027063807    5.93625634889568
P         9.80710494272537    4.06507806948918    2.36755722948303
Cu        8.35709633963754    2.81469093674514    3.42138846697402

