94
CSD_code = KASYAH | q = 0 | S = 0 | Stoichiometry = C42H47CuN3P | MND = 3
C         5.46346818610236    5.67231447966331   11.07308658525644
C         4.48476256713771    4.66627349398438   11.03399085480829
C         4.02783726692400    4.10156053861071    9.70798778415411
H         4.37346354561314    4.78166522275366    8.92075222842742
C         2.50335122135640    4.00863522343823    9.61819727039106
H         2.20641645055725    3.74267174060645    8.60565226915553
H         2.04128515309773    4.96221389585849    9.86554569728616
H         2.11383170367905    3.25000724013303   10.29275179280317
C         4.65276843918697    2.72492961619652    9.46824630514701
H         4.31857320109625    2.31983338187746    8.51511269257421
H         4.36446692952174    2.03411278032740   10.25835516710919
H         5.73702744629350    2.79442167222661    9.45094948525110
C         3.95778626218737    4.19560284938578   12.22698064252040
H         3.22585714848488    3.40151183757628   12.21220910836612
C         4.35579972937488    4.72715366494378   13.43924726221390
H         3.93751800169091    4.34791559057290   14.36082874596353
C         5.28862045749521    5.74739076354151   13.46897533974730
H         5.57794977290485    6.17048697500264   14.41909317644627
C         5.86424165810522    6.22129599866401   12.30186338435568
C         6.87682776131385    7.34319977659071   12.33527048575156
H         7.39870600053793    7.36467931544249   11.37341374813859
C         6.14684233699912    8.67898052990435   12.49666922517466
H         6.85930436235572    9.50064117879750   12.54049504550548
H         5.54708658366521    8.68451788942398   13.40497691365058
H         5.48144093532330    8.83945404666355   11.64777270764247
C         7.92319259334022    7.15779520038312   13.43409860305823
H         8.72028126079644    7.88920040422474   13.31485136523898
H         8.35795704564927    6.16174630730769   13.38224101629560
H         7.48829723361968    7.29385888276507   14.42118178964687
C         7.88996068785791    4.64220134947219   10.05587647064337
H         7.29814053202765    4.18285570601749   10.84438339280896
H         8.79304022414405    5.05794220758386   10.50326366466868
H         8.19279284362932    3.87915009117281    9.34130565594640
C         7.12063323983938    5.74277948352655    9.36157053618243
C         7.69922293906394    6.23310495699693    8.18885277626754
H         8.59555659708162    5.70871313020342    7.88809353482345
C         7.33747347020760    7.30753806670484    7.37047689036662
C         8.23234371903058    7.54838131503882    6.17529381630919
H         7.65012613657305    7.67094251413127    5.26429910908716
H         8.91454478340971    6.71429696666943    6.03873726341204
H         8.82716529467335    8.45040341509144    6.32337888111822
C         6.02948450836509    9.22781711025671    6.76180821323342
H         6.91543917386759    9.58683651682046    6.22930583582915
H         5.65714618787486   10.04783156614205    7.38648758347193
C         4.93732080914016    8.88567017487892    5.72550931706729
H         5.25595893938091    8.01996622743284    5.14421422160368
H         4.01513670992549    8.64617578835675    6.25953543596678
C         4.73077141583054   10.05259582610964    4.81533970609627
C         3.82070188897313   11.05933263572535    5.13043657182626
H         3.21553749427478   10.98020255851606    6.02001483188335
C         3.70996680671318   12.14848272678687    4.28595805863349
H         3.01238314324708   12.94432221743524    4.50664503270062
C         4.50778626512810   12.20036608748994    3.15261934022862
H         4.45290107160459   13.03093362596088    2.46610231013765
C         5.38024386573160   11.14826229069014    2.92518775268043
H         6.02501832826719   11.13408970193064    2.05529608874635
C         2.98413156817754   10.29777847340402    9.01771211362702
C         4.05894613123310   11.16343886627983    9.21545745879015
H         4.95193855689383   10.78478880594312    9.69791609929491
C         3.98112347516371   12.48066228948339    8.80573219198095
H         4.81627721048287   13.14724698481734    8.96356167455805
C         2.83022171004074   12.94351824897248    8.18640601221358
H         2.76772513020539   13.97184968260996    7.86267029000435
C         1.76397342255955   12.08458665101330    7.97635067469066
H         0.86969287986849   12.44316605098717    7.48707704482464
C         1.83751420176473   10.76331036719614    8.38564867270493
H         1.00541890219976   10.09621992122658    8.21039138240546
C         1.78247043387813    7.71737269954591    8.88332713188443
C         2.00760104799768    6.93163239324131    7.75772573820435
H         3.01709320876196    6.84195797857096    7.37670531405077
C         0.95993502731543    6.26133702383575    7.15374701379077
H         1.13908011744211    5.65505118736063    6.27804317008790
C        -0.31765781733256    6.36200533312514    7.67994390404429
H        -1.13709116278551    5.83503656744819    7.21389531790575
C        -0.54487677928570    7.13196240524280    8.80987655639487
H        -1.54062771198506    7.20372463878326    9.22291788299339
C         0.49845952128647    7.81125153576688    9.41241572091523
H         0.32221314635266    8.41000204258471   10.29563097809412
C         2.72695024713166    8.72249386006588   11.34676643856297
C         2.58933909383270    9.92946695948623   12.02230047049440
H         2.72052740671881   10.86573231205909   11.49837449193985
C         2.28034996527099    9.93169849390063   13.37144447110074
H         2.17187121961311   10.87206509174333   13.89251899590225
C         2.11200899682928    8.73833317887584   14.05316861232355
H         1.87294097504074    8.74767362213689   15.10647936869378
C         2.25636714927327    7.53300620749805   13.38392327095010
H         2.13567470338201    6.59878571419245   13.91104673313513
C         2.56954130966875    7.52442356770781   12.03967464372371
H         2.70531050998779    6.58878898454245   11.51583001762360
N         5.99203828496806    6.17849852077028    9.87567584182709
N         6.31605590395736    8.10311075705713    7.61927595366944
N         5.49312640404664   10.10673417979220    3.72964999243833
P         3.21830441859049    8.58159187862819    9.59457170609272
Cu        5.13457286117084    7.66233177041956    9.05515766410071

