160
CSD_code = KASZUB | q = 0 | S = 0 | Stoichiometry = C52H84As4Cl3IrO16 | MND = 6
Ir        4.17080042194537    6.05940652654728   20.33966960941313
As        4.04759276541319    5.06597103887122   22.50849344713128
As        6.10348807811666    7.10801839089298   21.74043123204840
As        4.09258578280100    7.21956432794442   18.24211572969297
As        7.62347650953137    7.11177204655173   17.32132308462534
Cl        6.15018372281641    5.10913193119920   19.35649911621598
Cl        2.38429663875136    7.34293331895156   21.16156173212164
Cl        2.71942069948582    4.38862385226525   19.73015766274826
O         8.85980827238480    9.24211559935302   18.70726666530766
O         7.69216456447149    5.06531419127474   15.29282960305824
O         4.13634911439993   10.49610034486892   19.06735669693139
O         5.32710656386311    3.05872419834763   24.46696097488128
O         2.11746500438265    6.07310415020502   24.48575871536692
O         4.36584374991183    9.48448601768992   24.29102965132913
O         4.10898302905753    4.76637727996431   15.04383528993589
O         6.17721652840095    6.12264995629466   13.98368855104891
O         7.07729671999468    2.46799962091497   23.14141652218281
O         8.70934555082742    5.47024678287401   21.31543245307894
O         7.18025160525029   10.72680268169126   19.04135844233885
O         2.67593118396180    5.61678568604419   16.56977962781646
O         8.86062056181041    4.88580888368732   23.50688507676368
O         5.22207606144132    9.48138652449393   20.76444075025932
C         4.33688859379063    2.17562078081101   26.41248936229604
H         3.36873138461460    2.02700864001105   25.93935243081691
H         4.38349330933422    3.18783530443625   26.80800393861760
H         4.43514505296109    1.47168968982635   27.23349999563543
O         3.44096386147604    7.27337028364717   25.88476286919079
O         6.54363574810079    8.90318747429132   24.53095466287080
C         5.46590072053763    1.95892025688166   25.40354814325139
C         3.54465527468514   11.54081917592812   19.89504856289578
C         9.94599337676738   10.17156240066780   18.97245408238201
C         0.89437610615638    6.21774297726354   25.24998433229233
C         5.29390257319967    0.62617146973814   24.67678658654414
H         4.34846505302279    0.61000531538596   24.13713982908996
H         5.30046503102566   -0.18487812334620   25.39966803981367
H         6.10413988487339    0.47434257196935   23.96910723343452
C         2.66583951335984   12.32734446904094   18.92218738666673
H         3.25672249175614   12.65495401360701   18.07081395175637
H         2.25183282216151   13.19858648117271   19.42084575968877
H         1.84795225486150   11.70770225475838   18.56278862010013
C        10.13905732500074    5.50843561260037   19.45481323829799
H         9.88626594784552    6.55777707002994   19.29220123412022
H         9.41674519392129    4.90895977177448   18.90107692915473
H        11.13507125082983    5.31324309460891   19.06924547847102
C         4.65855487198515   12.42378597963269   20.45066552638582
H         5.30497320706930   11.84376078419820   21.10346076594352
H         4.23090864281854   13.25116808368942   21.01061287842685
H         5.26499186646232   12.81412481867096   19.63695430277107
C         6.59975137735515    5.51650561052251   12.73261002799762
C         6.19673347156976    3.22089847981021   23.45820159270692
C         9.90845833776774   11.31217146236053   17.95435686228571
H         9.98072745371969   10.92156497986666   16.94151388547783
H        10.74451382791543   11.98338081134741   18.12864872501452
H         8.98395074611581   11.87501810708511   18.05092503571792
C         6.82485854551029    2.04485891564432   26.09653277334120
H         6.90583975858629    1.26267499663451   26.84617849307168
H         6.93660007532489    3.01320147654448   26.58016439726632
H         7.62782208781894    1.92457903629636   25.37436172568262
C        10.07426628548708    5.16507797821969   20.94263671352232
C         2.69846227867703   10.92575240192304   21.00705102661825
H         2.01604295646663   10.18090081721532   20.60138942699987
H         2.11896310768812   11.70838051612475   21.49042368993315
H         3.32280513377513   10.43376981700439   21.74828839725860
C         0.53244054933259    7.69921809678833   25.34540942354626
H         1.26040622043421    8.22871141766906   25.95412663119788
H        -0.44962602784526    7.81251406446705   25.79572924521908
H         0.52232162482937    8.13572468199987   24.34863801246784
C         4.93934046016009    9.59635308200568   19.58556094042140
C         8.23580803329114    5.21037837235110   22.53013212096373
C         6.71352362808071    5.76260326395733   15.12752736788268
C         1.55090793410962    4.77513290426791   16.18825088703813
C        11.04156334772658    6.03014149246527   21.75124131388846
H        10.80855539133464    7.08493863272748   21.61624633491539
H        12.05972953910562    5.84878362445722   21.41810318341140
H        10.96981193008319    5.78863104531451   22.80857487709025
C         7.58494823875874    9.63024675241774   18.73001903383571
C         3.00558086799544   11.22182929432736   25.09489562009460
H         2.33186994885378   10.49644304975502   25.54217614583120
H         2.68680089812506   11.40202554858923   24.07209326674852
H         2.95292713297605   12.15043537868606   25.65594993267266
C         0.41823904456244    5.21687086393463   17.11138834104236
H         0.76905597011268    5.18677676361075   18.14048646834110
H        -0.42651788221833    4.54397682931404   17.00478250149576
H         0.09646320794896    6.22596794984271   16.86543210315497
C         3.23906992769095    6.70024554574010   24.84320152656506
C         4.82781833898898    6.40509562375162   16.63854859038366
C         6.11605307790735    6.45233895717127   16.29611738029019
C         3.85524753253714    5.50418759066436   15.96194767627090
C         4.43443023947332   10.68042505107431   25.11162448398891
C        -0.15194403088373    5.46786379769610   24.42651103127888
H        -0.12962197814227    5.82872068991184   23.40088009149409
H        -1.14111560203675    5.63371568277344   24.84243663986290
H         0.05536625570659    4.40092608181279   24.42686014552384
C        10.34205817398339    3.67761553150028   21.16378810597032
H        11.32927801016759    3.42062412694711   20.79034328513393
H         9.59682469465421    3.08839247772442   20.63452349173283
H        10.28810217899919    3.43179670708237   22.22114272023312
C        11.20933027672301    9.33098370873971   18.79184550554460
H        11.27925346081319    8.57955716379692   19.57305189609460
H        12.08788594961301    9.96746106822682   18.83617698932507
H        11.18230198602323    8.82122421658562   17.83071816122342
C         5.62646023244838    6.09037092731239   11.70392001882584
H         4.61137253254067    5.81043163200585   11.97133888492556
H         5.85594728552174    5.70395097914896   10.71539148821674
H         5.69438828706913    7.17528281302896   11.68631103611599
C         6.70877962244554    8.52894959467075   18.27862570682579
C         2.57917973802796    8.28698325653559   17.58446494242969
H         2.61932045610201    8.35844141969292   16.49440522340049
H         2.61367359071797    9.28131710020950   18.02227991431226
H         1.65915311994407    7.78698721137293   17.88993312989664
C         5.40309423850052   11.68538046512657   24.49132827506087
H         5.39300852328209   12.60574990492004   25.06901389084464
H         5.10721994933191   11.90554268028633   23.46825253758058
H         6.41279489338320   11.28334307598737   24.48763790676896
C         5.09686949616816    7.48332130620501   23.36824768129976
C         5.41589422226083    8.70491680981972   24.13932919178762
C         8.03737364313047    5.92598954279545   12.41447967712898
H         8.12253163894614    7.01071038631974   12.37832091219548
H         8.32513410603461    5.51978137199289   11.44878943727637
H         8.71432942379350    5.54017095562830   13.17274009651576
C         4.18895033226283    6.56981431526714   23.72573694200649
C         6.77308865758511    5.42815873877978   22.47200645898647
C         8.27265528817706    8.26076984152697   15.82534770991134
H         7.45865506326028    8.86681290313411   15.43003361701357
H         8.66350892961492    7.62294357412542   15.03472025785758
H         9.07549163855805    8.91094316737794   16.16176284189050
C         6.45688213509096    3.99945829127697   12.81912815597598
H         7.20741468981892    3.58331473150368   13.48533901143177
H         6.57399805101056    3.56152115081990   11.83170540317808
H         5.47292000126698    3.75450651578847   13.21111869281842
C         1.18928714201555    5.03072005900770   14.72476114777726
H         1.03680964872603    6.09524767733022   14.55500073745828
H         0.27105648192434    4.50268021816840   14.48403382867337
H         1.97903215040275    4.67903222627142   14.06712881547592
C         4.84878030709617   10.30277923371101   26.53261413292682
H         4.25242167314776    9.45800841729211   26.87073026106976
H         4.69014977285091   11.14623802282700   27.19907164278596
H         5.89716784361485   10.01859650722224   26.56279067364041
C         1.06173743908751    5.58948140061753   26.63264217151759
H         1.36930888836492    4.54954064842850   26.53902317295169
H         0.11690175754495    5.62896498950205   27.16740829774853
H         1.81316192376767    6.12671801983357   27.20514051498967
C         1.89947146966065    3.31113418473780   16.43927003440227
H         2.72724978997407    3.00061609167368   15.80816437891490
H         1.03764915471989    2.68783791424117   16.21989350344283
H         2.17754074356792    3.18656067335336   17.48323288858812
C         7.69943690048606    8.22339008909755   21.85655416221364
H         8.22721480096512    7.98536095326050   22.78136475189336
H         7.40636177535800    9.27236762019570   21.85513821434096
H         8.32752409392239    8.00894672500170   20.99040203914687
C         9.85864259144270   10.72024407956568   20.39556884154096
H         8.93451502883851   11.27499709496873   20.53217185271437
H        10.69702088110061   11.38765193816218   20.57500494565622
H         9.89527463840372    9.91175599808576   21.12098204172841
C         5.87383151094875    4.50676255753155   22.81362753154973
C         5.40949833481620    8.59228665350704   18.59129518664710
C         2.80826224264727    3.65410366176793   23.01142998144376
H         2.77624606450711    3.51170489741132   24.09097889417911
H         3.14574665041883    2.74462684306119   22.50415829779824
H         1.82385001155569    3.92930341083941   22.62218698384877

