67
CSD_code = KASZAI | q = 0 | S = 0 | Stoichiometry = C29H33CuN4 | MND = 3
C         8.38212233522948   27.54424880088027    1.73683945983193
C         9.27056562146446   28.01120713992956    0.76158009530719
C         8.75365418798824   28.36528491981949   -0.59977977626614
H         8.16658868674618   27.53855577931321   -1.00277521690556
H         9.57192362930621   28.58757597747024   -1.28070403114031
H         8.09788595877359   29.23451448010860   -0.54732188088129
C        10.61541226654163   28.12581533481634    1.07275133108021
H        11.30045508581063   28.48808766781956    0.31789519509365
C        11.10251194669945   27.78731272966903    2.32757998171732
C        12.55974970770999   27.93909148169929    2.64915530842454
H        13.17167421122724   27.75990024576786    1.76751692818780
H        12.85785896210807   27.24660901922642    3.43322946927213
H        12.76418890465970   28.95198283140189    2.99872053989041
C        10.20882392712339   27.31817221838416    3.27937752484631
H        10.57326247285594   27.04505994931711    4.26047168586089
C         8.85722554685800   27.19043490863434    3.00454055656605
C         7.89907143978227   26.67160703485995    4.03321685173341
H         7.31275217904138   25.85175410291510    3.61608698836469
H         7.19974661153233   27.45169512827541    4.33453094255331
H         8.42865960507702   26.31971094647288    4.91536806549745
C         6.51522916873370   29.62537458643921    2.16212934802635
H         7.57660935259432   29.66105671704434    2.39725864788609
H         5.94572950150288   29.82403087606261    3.06915205041718
H         6.28666103703765   30.41469369109309    1.44691807143831
C         6.12193544928494   28.28449084085627    1.59125241058696
C         4.77364297002759   28.12755297029144    1.26800894593849
H         4.15357639587200   28.99217851913473    1.45614679352006
C         4.12691502239899   27.01050616916907    0.73613351658574
C         2.65061879051519   27.15789080370413    0.47104827643917
H         2.40673851892364   26.83379510740488   -0.53913144788690
H         2.34548690545992   28.19313945046778    0.59430043175208
H         2.07844344485565   26.55014567028231    1.17339125764450
C         3.99803788748637   24.75594745949389   -0.08117704265557
H         2.95683112042354   24.74521644463672    0.25021232694665
H         4.47872383012237   23.82660293208505    0.23828689950775
C         4.03417687928536   24.84510744565403   -1.58643567230604
C         5.17923311341993   24.48875194187127   -2.29520058423699
H         6.04066121902881   24.11090219664392   -1.76491823948423
C         5.18753081646797   24.64125187978206   -3.66943796037916
H         6.06189973287270   24.37539304339646   -4.24722827449472
C         4.05366832556226   25.13901379087652   -4.29473168864337
H         4.01696501869151   25.27198184720479   -5.36489871375774
C         2.96481289652208   25.46249567498753   -3.50288500145619
H         2.05290235964853   25.85473564433602   -3.93556859463080
C         7.79565829984074   24.36216319379959    0.36008144120402
C         9.72447307152697   22.80042978448341   -0.10031391909714
C         9.56240467065524   21.61573780759089   -0.83173142474682
C         8.21426700979451   21.25297052439939   -1.37183127444613
H         8.23738798051221   20.27254169107036   -1.83961884004708
H         7.89298841414186   21.98525920040927   -2.11300607059337
H         7.47146277353239   21.24705444275051   -0.57448440102286
C        10.67531984197466   20.81671297144965   -1.03396204826421
H        10.57317467711695   19.89887124396088   -1.59392155929427
C        11.91061900054405   21.18260227588661   -0.52593892434213
H        12.76800225939418   20.54791017499497   -0.69201513398104
C        12.05277051744914   22.35744442934484    0.19348877164645
H        13.02035625395090   22.63491523069735    0.58475893147269
C        10.96819919917813   23.18863505866586    0.42106776999477
C        11.08810993004663   24.46362751473075    1.19098841885589
H        12.11105005263419   24.62356208078864    1.51911084570289
H        10.43685852644738   24.45003900089934    2.06465621100413
H        10.77732184082158   25.31316942755387    0.58303732497940
N         7.02539209433200   27.34705410337419    1.41474816249397
N         4.74774697229161   25.86902379431744    0.49155497135698
N         2.95187344992379   25.32159438269137   -2.18843696956920
N         8.65057798648678   23.59460038204233    0.11093900727886
Cu        6.62302213410208   25.64770488438079    0.69922293362223

