51
CSD_code = KATBAL | q = 0 | S = 0 | Stoichiometry = C21H26CuN3 | MND = 3
C        -0.25823314485913    4.86936732419430    1.56416711745346
C         0.82167024823988    4.90718234948747    2.45241271383068
C         1.58282825046889    3.64903996884470    2.74577959723539
H         2.52024519928691    3.87161417908947    3.25029897081430
H         1.78974107076261    3.11727588254744    1.81461830610881
H         1.00191513910162    2.97762604501583    3.37857576952256
C         1.18562195249033    6.11611817731917    3.02432212819298
H         2.01899548250479    6.14009060832146    3.71373766116684
C         0.50866396859047    7.28988112683122    2.73157936000330
C         0.89639467818321    8.59270569336033    3.36655871447838
H         1.77900322189038    8.47400071790261    3.99030701721775
H         0.08335120865234    8.96934277550230    3.98724805044097
H         1.10677094937852    9.34222572132227    2.60447626240481
C        -0.53947780303585    7.24036419891285    1.82110331012656
H        -1.06090265329722    8.15315841157991    1.56618772482386
C        -0.93003909418744    6.05210336944510    1.22974056451321
C        -2.03501531502489    6.00869261123588    0.21780200929397
H        -2.31497536091225    7.01206542762671   -0.09382289226379
H        -2.91780105315825    5.51221622021025    0.62134763016532
H        -1.71045360077017    5.43586583927065   -0.65236318337727
C        -2.15752915178628    3.24963790478390    2.75671393803439
H        -2.94121288136750    2.55437170666121    3.04329198214214
H        -2.58212199639302    4.24897338190911    2.67749530809920
H        -1.40962168133168    3.27957914678910    3.54839373635378
C        -1.51235192064770    2.84965587923586    1.45204201066540
C        -1.90654497951122    1.63497695762924    0.89038675916425
H        -2.63638671092690    1.08655086479697    1.46860329593999
C        -1.52150767898070    1.01299940882046   -0.30495684259626
C        -2.15590861596617   -0.32465889314932   -0.60494968288190
H        -2.81809866745870   -0.24297157408239   -1.46783109402724
H        -1.38999710622853   -1.06370682434133   -0.83858920950575
H        -2.73793310161329   -0.68015117105743    0.23988637909389
C        -0.34538489020080    0.89599856029893   -2.40044987958589
H        -1.24212380996995    0.50234811108466   -2.89714478585878
H         0.34553156645058    0.05327062774141   -2.23845211274470
C         0.31255799562821    1.90744589638366   -3.36434565947411
H         0.40295298197188    1.44795888040081   -4.34964270056580
H        -0.34363900748335    2.77835757855299   -3.42819807127746
C         1.65771017764607    2.34065478826322   -2.87341444910449
C         2.82436815588535    1.78741098002342   -3.37465843299069
H         2.76997227852140    1.05429555112372   -4.16542654779860
C         4.05246936045126    2.18188295659856   -2.86399742404033
H         4.97028247158704    1.76763855475012   -3.25245920198510
C         4.06863427401787    3.13150172119957   -1.85150794605978
H         4.99820128231811    3.47854296529524   -1.42872630102900
C         2.86982119735627    3.64557179736022   -1.40310131640739
H         2.84156066686798    4.41119650092455   -0.64065044637488
N        -0.61034467863182    3.66136475298346    0.93568351208492
N        -0.67132826411002    1.53635523756028   -1.15600786438552
N         1.67836596288418    3.26168509289353   -1.88859572336420
Cu        0.24770342671500    3.15302601054518   -0.64296806167213

