35
CSD_code = KATDOB | q = 1 | S = 0 | Stoichiometry = C17H11N3O3Re(1+) | MND = 6
Re       11.07622763552334    9.81232672854936    9.47277271744356
N        11.18358209203105   10.31156529674675    7.35761024984048
O         8.27865037224614    8.48626454484564    9.32022616055013
N        13.04808836589020   10.70740273042482    9.26005668966220
O        11.37685370523894    9.14726289066482   12.48530339757876
O         9.87255112029330   12.59995348993009   10.06872119208316
C        12.35807775585275   10.86642087718632    6.98249789292494
N        12.00123199868344    8.07576321472468    8.93086494110972
C         9.30481017842156    8.97314182916842    9.40705128560667
C        13.35088320250226   11.07656596581759    7.99515633039537
C        14.58675861022468   11.66271550856868    7.64889365444730
C        15.52313224990789   11.86228603619769    8.67736483450963
H        16.47844243212485   12.31033957013257    8.45112279507252
C        15.19593634127028   11.48458764215756    9.95765656683250
H        15.88399815442367   11.62544140550567   10.77509386090964
C        13.94718704554535   10.91113391474356   10.20605212362750
H        13.67548659896002   10.61426638258192   11.21036384348803
C        14.82854943296497   12.02851652245329    6.29327673877123
H        15.78106615520977   12.47364468215673    6.05075727963133
C        13.88992293874478   11.83069348949578    5.33634388631622
H        14.07544683309573   12.11429518574637    4.31194185387319
C        12.62792916645847   11.24928834037731    5.65152861131889
C        10.25329470302248   10.12858021912664    6.43785179960984
H         9.32034825704686    9.69054082484289    6.76693815767922
C        10.43015692361144   10.47733623213061    5.09731357709267
H         9.62968234484429   10.30391363452481    4.39686062320614
C        11.61906373123610   11.03832622616057    4.69649362215512
H        11.78794479010381   11.32144215421143    3.66892897738672
C        11.23640667566166    9.38490829462351   11.38016267935708
C        10.29387525991715   11.56193245627750    9.87401113407943
C        12.51473076696499    7.09077304969620    8.63910551399722
C        13.13633110642181    5.85864343351742    8.29481314713099
H        12.41731737371904    5.04716333797592    8.41452233330335
H        13.98755074079827    5.67792007447942    8.95214157543412
H        13.47918494103817    5.88284381425707    7.26009995357331

