41
CSD_code = KATFAP | q = 1 | S = 0 | Stoichiometry = C19H14N4O3Re(1+) | MND = 6
Re       10.93390648243282    6.30803410597912    9.55092392672732
O        11.27719861380566    6.47028089491856    6.48043361370976
O         8.84531566233642    8.59237757553266    9.59689587237810
O        13.26497177046281    8.26918443996987   10.10814687504048
N        10.67799922107167    5.96944437455008   11.71314824784591
N        12.14882378515762    4.52756170599197    9.63406227239770
N         9.48647624966587    4.71706503771700    9.36865617829218
C         9.64032191174110    7.77301618461632    9.56668580628727
N         9.77666525644494    5.89525664925091   13.71394176007194
C        12.39112807094322    7.57244455230380    9.88143912544246
C        11.15365476128135    6.44155791675085    7.61188958908901
C        10.01513546665137    3.47973126926296    9.49953452548915
C        11.43737358966828    3.37862388705311    9.64108572248404
C        13.46489003596843    4.44724774139534    9.72238393447705
H        14.01313080508165    5.38005838963749    9.69591814654924
C         9.57107480636603    6.13719414200690   12.41305722250107
H         8.62335096896208    6.43889195239303   12.00884739591883
C        12.03852527704977    2.10780077097936    9.75827489321222
C         8.18019401156349    4.82246266472558    9.19795538133608
H         7.78433410913344    5.82206139754930    9.07456135290883
C         9.86922157929180    1.04109352593196    9.61916434904123
H         9.25008511996832    0.15740933320789    9.60679901925901
C         9.23081260845707    2.30719092429576    9.47853105691147
C        14.14838854252786    3.23530270761421    9.83948522137117
H        15.22407619951444    3.24007034850741    9.90695668716331
C        13.43844434940087    2.05840680175366    9.86475853451089
H        13.93518779844538    1.10479542776014    9.95607580676589
C        11.21411350611238    0.94563070340775    9.75336961821544
H        11.69355816572215   -0.01613214468482    9.85084394212695
C        11.63786772229749    5.60487881270944   12.60867741111394
H        12.65207133609923    5.41470125182984   12.31670483988605
C         7.84445273008587    2.45554953897820    9.30719305091196
H         7.21134941206421    1.58198529044402    9.28332732142812
C         8.81593319007645    6.00553496433198   14.77675774156305
H         7.82946232448850    6.19772542106406   14.35999163363801
H         9.08458032837389    6.82672777951529   15.44328694325075
H         8.78804946706594    5.08215891940815   15.35634587272075
C        11.08775007272922    5.55510578973936   13.85485067305157
H        11.52027325437288    5.31389059817307   14.80314306063656
C         7.32462789835622    3.71990636234286    9.16168346108714
H         6.26812353875293    3.87567199108436    9.01591191319438

