67
CSD_code = KATFES | q = 0 | S = 0 | Stoichiometry = C19H31B10IrN2O2S2 | MND = 8
Ir       12.93340840114059   10.75025603680964    7.32157042336297
S        13.28202513793597   13.01541427677509    6.63043516784538
S        13.44816812326652   11.33413069915899    9.58716173888672
C        14.02997103476264   13.82087106223193    8.09922539189078
N        11.07956557262882   11.47759824638075    7.70527020015800
H        10.37742510014698   10.90965089013539    8.15990132390843
C        14.16371482723220   12.98338520406184    9.45228015854676
C        10.65408165255674   12.66295340907986    7.29102534222163
C         9.30087819612169   13.11166949686996    7.40811583552997
C         9.87809928570097   15.13863671745683    6.21556251503748
C        11.58086208280706   13.54769059471493    6.67871270507622
O        10.30765716850960   17.04050071021636    5.07189027945947
C        12.36082976558582    8.80688256248815    6.21932806636186
B        15.65522777044561   13.32391580008009   10.22957078835738
H        16.14613459439919   12.45098623393035   10.84058191821769
C        13.17063792441878    9.59860045309654    5.37621274354115
C        14.46006050843229    9.76960452054519    6.01945652446958
O         8.29304395077963   16.68340458820558    5.75007756975827
C         8.94732032340626   14.32032893041554    6.87586232091252
H         7.92883471099322   14.67233931446128    6.94330660787715
C        11.21054011241324   14.74473860610312    6.12414795481761
H        11.92197118616856   15.38534655780565    5.62723311901491
C        13.09569040277914    8.55945230406549    7.43012340776124
N         9.46739853125487   16.36369462539282    5.64619548305085
B        15.58051809874859   13.18674249959472    8.48567514260032
H        15.91318156444493   12.24455066694833    7.87106675643987
C        14.43037731317218    9.09358415609965    7.25489681347169
B        13.88449386766142   15.50071194795278    8.36984471050981
H        13.22597806387507   16.12137336474135    7.62458093019288
B        13.08275629881128   14.33633891863214    9.42552761648924
H        11.93917215478684   14.07752047791907    9.39192782770449
C        12.85967020123692   10.00376045809820    3.97333739777528
H        11.78791278747614   10.11356630640312    3.82301953568561
H        13.22270346026967    9.24222514959886    3.28039250416742
H        13.34346297196139   10.94468679555861    3.71924784712093
C         8.29724086904398   12.24074487134423    8.10308152165816
H         7.33107127687643   12.73541561166979    8.13545253429554
H         8.61243325024585   12.03166382041079    9.12565446787275
H         8.17933367171225   11.29134380088604    7.57896928368945
B        13.97395187863983   15.67245088758468   10.13456944860027
H        13.41271285077582   16.52748237388893   10.71047739272414
C        11.00727529492702    8.26900499012934    5.89085238800465
H        10.43376793588562    8.07140479521329    6.79301551632481
H        11.10964012468644    7.33123187131713    5.34247436181793
H        10.44708428570283    8.96381454473826    5.26885024087921
C        15.65090608058448   10.37319802260390    5.34773228024342
H        16.05309240249229    9.66947957779986    4.61704874334886
H        16.43563953735094   10.60557564719191    6.06306817415673
H        15.38637573756096   11.28859432017791    4.82117865585488
C        12.70934367320727    7.61367107835525    8.52129875240120
H        13.09079344515819    6.61635415005353    8.29480797818098
H        11.62940163258908    7.54939088556476    8.62696917534738
H        13.13141402698828    7.93158148196928    9.47176765069017
B        15.57292667109037   15.04578534680436   10.64706602894963
H        16.12300500559857   15.46937732225311   11.59440359547807
B        15.40811021310352   14.79755335451392    7.79720748137664
H        15.71075564104777   14.94606830820814    6.67184592204776
B        14.12826446591802   14.02417636879533   10.80494059332860
H        13.64495836873072   13.60371644163980   11.78723219961494
C        15.56613031809252    8.84055173929907    8.19154281389962
H        16.44959914600068    9.40293465853396    7.90233356455746
H        15.81438060900531    7.77874780045561    8.18796307568640
H        15.29911889875725    9.12182898247564    9.20939048934743
B        15.42321853230762   15.96946563325667    9.12662977123412
H        15.86607147648797   17.04784074055244    8.98687420266591
B        16.47353024594333   14.52387874731588    9.19153085742461
H        17.64367928716575   14.57525924296733    9.10650617003982

