70
CSD_code = KATFUI | q = 0 | S = 0 | Stoichiometry = C20H33B10IrN2O2S2 | MND = 8
B         7.08948059897498    6.58901364489237    8.17734770106529
H         6.73828626541435    6.73309911364743    9.28698898145408
B         7.74334592381595    5.09032000528000    7.51398252457615
H         7.90855147648025    4.18583874700871    8.24174321201177
B         7.00680263710884    4.79908676968818    5.92797047957450
H         6.67502563951927    3.70656235333906    5.65148204076179
B         5.88391612298046    6.10886463811112    5.57848522964661
H         4.80344222783878    5.94818575787768    5.15046616570303
B         6.77775479729139    7.61334037485594    5.50620342666886
H         6.31182092313106    8.51584425025096    4.91903292836744
B         7.51310374204242    7.90802187561354    7.09503677515872
H         7.52334496279169    8.99972686572376    7.52335589901945
B         8.67838699062362    6.59659614194592    7.43083444824212
H         9.64246164197452    6.77239316015631    8.07720106847141
B         8.63817895036185    5.48369209965115    6.02945081680545
H         9.58270678090139    4.86530266986706    5.70644655608207
B         7.47234304384887    6.11434942720919    4.82941590781395
H         7.59091084130260    5.95302620333837    3.67216053576580
B         8.49259507188858    7.24382047734868    5.77035636018838
H         9.33812611851931    7.88145460901360    5.26218365952021
C         5.99278054197636    7.14342533982457    6.95712475855590
C         6.13684915908077    5.56972261179554    7.19031027488179
C         0.68789334352460    6.13716114031089    8.36592000100365
C         1.10261567620081    4.98593873732057    7.66021029090164
C         1.63808497584161    5.40983900482358    6.38045361430042
C         1.56503962636412    6.81499863409885    6.31528311145216
C         1.04883878147529    7.28704981214602    7.58328834000864
C         0.64050062176077    8.70084470704078    7.84657704068250
H        -0.31925701133080    8.90184566428919    7.36698773673539
H         1.37458384756692    9.39369943049110    7.44187828719612
H         0.53578860743132    8.89166652299531    8.91158261461539
C        -0.04772825610015    6.15517122329105    9.66499873177125
H         0.26707459334673    5.33494279074029   10.30651097726459
H        -1.11807973468030    6.04911322320546    9.48127712494396
H         0.11318580538006    7.09081738669913   10.19455023614588
C         0.83958641907159    3.56871310909411    8.04919105832731
H         0.83435300248609    3.45309509978421    9.13085995208537
H         1.59147905105004    2.90074067384379    7.63484518092823
H        -0.13519486159363    3.25493557283082    7.67100369082338
C         1.98910175752075    4.47092904718602    5.27190540439491
H         1.07497307315940    4.09002953921418    4.81347878093383
H         2.55949455535165    3.61981334544835    5.63990195941597
H         2.57452997264634    4.96616478776932    4.50147322196323
C         1.83882857560640    7.69502504563850    5.13968351301908
H         2.30552823850060    7.13985998441249    4.33065917542954
H         2.49830419758628    8.51659766732121    5.41603032489360
H         0.90352781599027    8.12000979984625    4.77373943858251
C         4.47882308809000    5.54317924273553   10.43196488185708
C         5.05066664351559    4.54342844634623    9.60537976706845
C         5.82602176748053    3.54044135128558   10.11255654778744
H         6.22926394147930    2.76881151545065    9.47528429611612
C         6.12393842991695    3.51027630383250   11.47583587073481
C         5.62866527043882    4.52362590680795   12.33538974558228
C         4.85595241026627    5.54245460696139   11.80826825875628
C         4.37612636228384    6.68514326454261   12.66174075385625
H         5.03455254209584    6.84037324728841   13.50976342721504
H         3.36678311594867    6.50467045819709   13.03533145179782
H         4.36884013048120    7.60744401450710   12.08249545983487
C         5.87328041219417    4.47977970032393   13.81348523077258
H         6.72005372925427    5.11466723972541   14.07282127953884
H         6.11789722288899    3.47586762955406   14.14394679661446
H         4.99683407959524    4.82285422776259   14.35701402468111
Ir        2.95531753219197    6.25650802845387    7.97317107271813
N         3.61907224952764    6.39406506224420    9.88574662767076
H         3.24380101938761    7.09030871689889   10.51496750345965
N         6.94784445771240    2.43727352982248   11.89482793242594
O         7.56945745957725    2.51934616185327   12.94273168534623
O         7.01367465696230    1.46107869999573   11.15938847090291
S         4.50817167691659    8.01819310600419    7.48879747235904
S         4.70649466978350    4.63722045313750    7.86062188480934

