64
CSD_code = KATGIY | q = 0 | S = 0 | Stoichiometry = C31H27IrN2O2S | MND = 6
Ir        1.86204660218322   11.66947710811330   13.99744602171547
N         0.27975617685851   11.99974872303100   15.15987772809046
C         0.91783374359813   12.45094375429416   11.00248060205737
C         0.73848256524162   11.07236749662137   11.25840479901419
C         2.45270286370446    9.99360370632456   14.95643249582993
C         3.91927664060747   11.91256533985932   11.84476391917493
H         3.59189081028499   12.94155451142371   11.78359227292549
C         4.79322099975346   11.40825841926262   10.89956271492130
H         5.12616718124922   12.03517029025737   10.08858384365084
C         0.95216412749287   12.97643525727086    9.72655631071801
H         1.13130767005486   14.03577722934132    9.60347735355563
C         1.97173041002242    9.43585614563029   16.13690114331108
H         1.24891851357047    9.97156128144513   16.73693510433312
C         0.54827855387844   10.25473188434165   10.11965108751702
H         0.39663818460783    9.19713550573889   10.27893030293826
C         3.40618031882880    9.25870316114972   14.21981986312994
C         3.90317846606488    9.92008905214604   13.02124067409876
C        -0.88154742627455   11.36598281859555   15.01227018128226
H        -0.91890326616291   10.63769864077558   14.21336823449340
C        -1.85271779770598   12.56304969860295   16.82961603442465
H        -2.68704664211125   12.78592611825366   17.47728723866090
C         0.77959944887852   12.14555940456060    8.63757107681932
H         0.80820148415326   12.54369581602896    7.63479875860028
C        -0.64385046652681   13.20987156526530   16.99616895730025
H        -0.51998091631403   13.93985041224756   17.77942882960426
C         0.56879237231107   10.78635966250473    8.85258826969500
H         0.42757213579563   10.13203622411982    8.00291767553659
C        -1.97340075897805   11.61314034802099   15.82236941327052
H        -2.89575171135221   11.07720517923780   15.66751663969155
S         1.14221827519208   13.46745656992029   12.45349455750970
O         0.73389619576386   10.58475783749362   12.44999300437294
N         3.45731626725735   11.18860507952683   12.86135128398218
C         4.77668923630256    9.35113175384423   12.09649181391445
H         5.09817902949930    8.33011190346173   12.22140852626048
C         2.41050080064123    8.19605094868477   16.57279958116118
H         2.02503953543757    7.78418885630035   17.49449027560631
C         5.21301270319364   10.09123941001557   11.01517810166536
H         5.87550923289146    9.65616903279156   10.28211748781614
O         2.14804189763210   14.49144942036312   12.12796099277009
C        -0.46170465699541   14.41760153627901   12.37573994000934
H        -0.38194274988258   14.96090116391523   11.43171354159016
C        -1.65819652938155   13.49061775971421   12.36725992750213
H        -1.56859008439030   12.75159297589856   11.57268208080073
H        -2.57252385427128   14.05995561436622   12.20302793209725
H        -1.74875830930192   12.96879443881275   13.31806324388420
C         3.33911324984449    7.47959987909003   15.83387629015820
H         3.67359491729783    6.51143302050509   16.17610770095195
C         2.13613362600442   14.48464715908474   17.12113627344240
H         1.40872795008860   14.92862617754931   17.78517897140756
C        -0.45621012809711   15.38809717462233   13.54216419728958
H        -0.56652335806714   14.85593822519220   14.48638969548316
H        -1.27019103588306   16.10623520674962   13.45326380986856
H         0.48748118170230   15.93033340070685   13.55928165016300
C         3.83838356502083    8.00892461380529   14.66139321119635
H         4.56705670588660    7.44884912625620   14.09464914380733
C         0.42678771002488   12.90907386856748   16.15337472346218
C         1.76578693543263   13.46845150875663   16.24019893049364
C         4.00706929810475   13.37299421693790   15.39827937802401
H         4.75345130931876   12.95644196261790   14.73744911000533
C         2.70391414174315   12.89632078390232   15.35281628005361
C         3.43830818311242   14.93851905700699   17.13555269982202
H         3.72821367265921   15.72921129925929   17.81190238581220
C         4.37337354668598   14.37881168630831   16.27714263869473
H         5.39350125583141   14.73521257725939   16.29161307256637

