76
CSD_code = KATGOB | q = 0 | S = 0 | Stoichiometry = C31H39Cl2O2PRu | MND = 9
Ru        8.52163149794563    2.56052622744592    9.11252536114069
Cl        6.98879387980555    1.11096777382600    8.09886289372301
Cl        6.68542317673358    3.70942876418223    9.97681911864152
P         8.56005828514822    1.06263219916736   10.85454912029512
C         8.94062925074664    3.88965483626140    7.27265643456959
C         9.56492954127073    2.61577907357916    7.11965995994654
C        10.50811304123899    2.14582555244616    8.03681928074009
C        10.73931083046192    2.89683265123171    9.21231249129493
C        10.15062988483757    4.16988629997467    9.37047515291500
C         9.25977176851092    4.69014895472120    8.40807537200517
C         8.68810393762928    6.05375923720387    8.60475662104242
O         7.58951683862224    5.49318023301283    6.10946982573489
O         7.73058239148280    3.39626501408617    5.33201244482060
C         8.02016079195292    4.36887856678240    6.21356307979986
C         6.80697480096321    3.74426585255804    4.31461889398003
C         9.14724671878666    1.73172264362878   12.44344920785957
C         9.07028432926077    3.10869798175483   12.63574415364648
C         9.48775725334762    3.67362062712092   13.82641813737341
C         9.98731039714938    2.86824225086780   14.83719514241642
C        10.06812949833472    1.49802374161520   14.65194503919007
C         9.65253315993734    0.92761077639119   13.46142299303563
C         9.86899430713245   -0.10416157579693   10.34708470997583
C        11.15046995822373   -0.08992822496807   10.88974223133387
C        12.12757312159467   -0.93875845619946   10.39759404674751
C        11.84206229950587   -1.80172175183938    9.35344002403011
C        10.57651294840514   -1.79991406998017    8.78719933169719
C         9.59865909164907   -0.95166313432423    9.27180205016395
C         7.13919104394508   -0.09133309537093   11.15685586720657
C         7.48590547116545   -1.24174604578257   12.09885305862820
C         6.39388865713306   -2.31649247264292   12.06050545215198
C         5.05150010813690   -1.67348322432982   12.41350213765856
C         4.70960240696769   -0.47649681804061   11.52719582306103
C         5.79816631355059    0.60518588319405   11.44366767724705
C         5.79882455254299    1.66241644405574   12.56658848317589
C         4.55652928170508    2.54795360268787   12.45351131880524
C         5.91917502677459    1.17722048846160   14.00795081862887
C         6.35405239877894   -3.05960880172216   10.72665383910359
H         9.35882854491674    2.04758045443465    6.21970349748528
H        11.04845219832082    1.22498814996474    7.85440462549714
H        11.48302605855155    2.56027619706961    9.92797772597213
H        10.43186661968361    4.78552670788860   10.21739986604093
H         8.84286847522807    6.66456344191398    7.71768284787920
H         9.13170493332016    6.53666109356420    9.47322688534059
H         7.60919167832412    5.98318653298315    8.75847644914575
H         6.66776400652167    2.84794388202870    3.71589136452019
H         7.20174887958951    4.56107697583894    3.70573397250258
H         5.86017072334844    4.05960916846546    4.75733348695208
H         8.65167930867625    3.72538829543312   11.84848458978852
H         9.41840628978867    4.74171562752067   13.97011491170806
H        10.31167224261353    3.30641531349185   15.76940794152403
H        10.45643941694653    0.86819475165938   15.43923094787092
H         9.72951961851689   -0.14038403869973   13.32278630801582
H        11.38938290964231    0.58507648026056   11.69946988068103
H        13.11714433920648   -0.92230236334548   10.83117236294069
H        12.60614342098075   -2.46400914937264    8.97417015388631
H        10.35404601250963   -2.45600412149545    7.95860634017281
H         8.62616018534106   -0.92233457699869    8.80013734360329
H         7.02668867131139   -0.51799519135435   10.14995430094456
H         7.58176165701972   -0.88703373350098   13.12330243359270
H         8.44047173168010   -1.68582280853732   11.79999229204840
H         6.63109355748748   -3.05557838438761   12.83678014636672
H         4.25751130297949   -2.41814053303398   12.31690960170627
H         5.08332327054225   -1.36596880675222   13.45841751842484
H         3.78233042151425   -0.02780100292424   11.88298811789392
H         4.51993203224944   -0.83612423825864   10.51434302683842
H         5.58796435239490    1.19289231960303   10.53965499053895
H         6.66267718630914    2.30270781247885   12.34940792421802
H         3.64940778113582    1.98855273039378   12.67017076645924
H         4.48265330524464    2.96904759332003   11.45595701744007
H         4.62334669275606    3.37022490389175   13.16183381425040
H         5.05418942604265    0.58542217299346   14.29522117343445
H         5.96208077774920    2.04281036870268   14.66746502568616
H         6.82243137847564    0.59909989229927   14.17615079876852
H         6.06468992855421   -2.40719132447149    9.90894644790796
H         5.63528166949557   -3.87444430679244   10.77824884627503
H         7.33185073365968   -3.48044429154081   10.50014666189458

