58
CSD_code = KATHOC | q = 0 | S = 0 | Stoichiometry = C19H33N2OReSi2 | MND = 6
Re        1.45952032268814    3.36257343195667    2.70258458897818
Si       -1.40145970759917    1.87208629644052    1.67341838089079
Si        3.56922294353094    3.80608860178863    5.31178362577895
O         0.90410670496457    2.42466857969017    3.95690805959877
N         0.67916659274592    5.25945380094273    2.76727880798520
N         2.31479545493213    4.53316192501998    0.91161257339159
C         2.64670179773177    1.62258764141091    2.00331368356859
C         0.03244856226444    2.96213236111846    1.06121419621149
C        -2.32293412495153    2.69739980498190    3.13256481119929
C        -0.79915263852954    0.14061996642982    2.19857606343210
C        -2.64464690959485    1.68319183415923    0.22886320698624
C         3.33542343648720    4.24347065364053    3.47515711967934
C         5.13447963580311    4.71736520901068    5.93418727909924
C         3.80591280609908    1.93088420016703    5.56491719317741
C         2.08734170411269    4.41094304239699    6.35935894192176
C        -0.16801777984521    5.56438260474924    3.76082077225456
C        -0.74963989180900    6.80007971133688    3.90751742429713
C        -0.45423055013854    7.80330660793761    2.98231292667647
C         0.41284042876429    7.50633742406333    1.95616389445374
C         0.97100283537428    6.22733631718125    1.86337236760213
C         3.16015930818444    4.08557265418720   -0.01526804636423
C         3.62752664542725    4.85676486080702   -1.05962217437763
C         3.19911693420574    6.17677365029911   -1.16008354176753
C         2.32436893322012    6.65575393593985   -0.21098274435916
C         1.89159273591173    5.81510578528701    0.82076863052100
H         2.49146677269745    0.77928702010250    2.67583137174666
H         2.35276821202867    1.28301964994540    1.00945695585130
H         3.71955632743398    1.81836866604931    1.99669186243250
H         0.50735330807978    2.48181441134105    0.20366717963601
H        -0.37049446653172    3.91427636687434    0.69851128853832
H        -2.62202771797110    3.71670215054703    2.90234533138631
H        -3.21778003616662    2.14535621760372    3.40402870052179
H        -1.67481018730978    2.72368825817704    4.00345041624857
H        -0.05207096693656    0.23984586077273    2.97995460186822
H        -1.61204753981167   -0.46779261627790    2.58358506438527
H        -0.34552174072109   -0.39652500842449    1.37159614095134
H        -2.18044855519338    1.22104635986087   -0.63560427402026
H        -3.48293338725041    1.06105024541905    0.52224025670132
H        -3.04280625199219    2.64230894854363   -0.08563198296121
H         3.28960061499189    5.33301315478115    3.36851069091500
H         4.21214831923480    3.91547528804123    2.91352762679751
H         6.01485532682498    4.42088710202909    5.37440736442517
H         5.03459490609322    5.79397591252558    5.84337123387965
H         5.31959529960453    4.49277217910133    6.97879601122140
H         2.94401200112377    1.40169395423595    5.17039030839232
H         4.68670312636007    1.56266312834236    5.04835566412172
H         3.90674596757624    1.67654870969479    6.61575340685814
H         1.86693554761533    5.46112006170841    6.18602676851823
H         1.20343253700395    3.83354750733158    6.10521410459392
H         2.26986518946933    4.28417360507231    7.42225689401601
H        -0.38066000822283    4.77122406801672    4.46364534886174
H        -1.42355475852257    6.98356582013129    4.72863399168827
H        -0.89412696824473    8.78420897586150    3.06979664826475
H         0.66170218378858    8.25788368978879    1.22488228811914
H         3.47457643154856    3.05841735448047    0.08899152168712
H         4.31126507815439    4.43682701829145   -1.77925656628528
H         3.54300356458950    6.81156013980014   -1.96238693916402
H         1.97525569067489    7.67385489929044   -0.26357732102071

