36
CSD_code = KATJEV | q = 0 | S = 0 | Stoichiometry = C17H12Cl2N2PdS2 | MND = 4
Pd        7.77642604664356    3.93638261610621    7.60345438769698
Cl        6.67944702909271    5.69816147209710    8.42229455085942
Cl        9.64209446815836    4.48542440647454    8.68380031450351
S         3.47414486209410    3.36480608739217    6.12899684813030
S         4.80457990368308    1.78735992636059    8.28143711027878
N         6.01892645989860    3.50317445691234    6.56519127867427
N         8.67410749594957    2.31743763849265    6.79048378666974
C         4.93794379410611    2.92851099992481    6.99130682335115
C         4.42739697282835    4.44427851889131    5.14125634753785
C         4.02165230884806    5.29294037551555    4.12565228969633
H         2.98589636237462    5.33955713388512    3.83035677229219
C         4.97982692297129    6.08268588834181    3.51914230786079
H         4.68559874178521    6.75666773630687    2.72972333067242
C         6.31428977508426    6.03816228045622    3.91964126068030
H         7.03242161501260    6.68391602464641    3.43851924108891
C         6.72702495751845    5.19125269313016    4.92667428681930
H         7.76463756483013    5.16732850113270    5.27410649061028
C         5.77297696115354    4.38115457776217    5.54080077943878
C         9.66290200272834    2.67041047481073    5.98968757245449
H        10.03273275717988    3.68744847310441    6.09686475058870
C        10.25073509872928    1.80569128072211    5.06252851488753
H        11.05352484962563    2.16108632982555    4.43711069606487
C         9.78490429248402    0.52212795200570    4.97615806836281
H        10.19821458157412   -0.18244245067347    4.27006594435009
C         8.75393865110555    0.09972577270859    5.84099360104485
C         8.27023974164978   -1.22150030401054    5.79303604842141
H         8.69529530781131   -1.89942712170692    5.06829271828515
C         7.28763938115270   -1.62896563598448    6.65040427628571
H         6.91082068302520   -2.63926474763220    6.61962565426382
C         6.77229957143750   -0.72909533150558    7.58473709536084
H         6.00174853125416   -1.06319204952907    8.26439460000970
C         7.20561513836692    0.57797730234209    7.67095059899481
C         8.21036900275061    1.03591573763415    6.77267036572668
C         6.55634624302099    1.42334824659668    8.72753382840548
H         7.08200551589272    2.37954053622871    8.95163013398541
H         6.45027640817950    0.85111420123524    9.65057732564733

