52
CSD_code = KATREE | q = 0 | S = 0 | Stoichiometry = C19H24ClN3O3PdS | MND = 4
C         1.63941082153231   13.44127485080115   23.17009900747252
H         0.65516158743953   13.49755014471119   23.62021165771725
C         1.92520298718674   14.13519171595340   21.98609742130019
H         1.14757362405602   14.71845760645555   21.51951961886839
C         3.18457037343919   14.06958956143521   21.45258448639683
H         3.43986136595899   14.60693845301934   20.55100885411130
C         4.16757902827147   13.28097965714848   22.08526506409501
C         5.48253910324690   13.13195548915736   21.60666492979206
H         5.77499347470065   13.65801535905159   20.71088940017953
C         6.36510867334344   12.32195551886066   22.27330782459686
H         7.37353520072787   12.21047612629690   21.90349004435178
C         5.99499732868261   11.61706404162380   23.42154062473008
H         6.70366938238795   10.96361634464494   23.90122015678033
C         4.71449708354545   11.73588569011956   23.93542489876513
C         3.79293002318754   12.59944935108207   23.27240156719588
C         4.65289112369252    9.83295268418639   25.35511257211659
C         3.76622916356170    9.09250679534201   26.38090023198498
H         2.70372532410765    9.39061112011088   26.26700031074203
C         4.23572709106374    9.37632911707135   27.82138763620366
H         3.56418633527287    8.84685479717742   28.49990171463463
H         5.24279511625324    8.96764732290139   27.93869601481396
C         4.26133327475493   10.85647446309629   28.15872819503553
H         4.96512900578920   11.39504129578885   27.51950037787088
H         4.52983333973420   11.00234125302391   29.20653216092514
C         3.02702086424468    6.76595044055315   26.57943360233185
C         2.61718019698423    4.37924338060228   26.53155092076018
C         1.20179329980214    4.49297473807176   25.96562972969157
H         0.68516695942238    5.33405462981964   26.41955161329998
H         0.64814344835045    3.58189381875837   26.17466406269227
H         1.24199212991772    4.64414409030999   24.88898543388393
C         3.36301726358699    3.21317733222553   25.88107056528553
H         3.41450094818166    3.35900032024659   24.80548502128471
H         2.84862861938376    2.27994218618925   26.09003558688662
H         4.37633928931036    3.15651611592294   26.26967470472943
C         2.58702699283218    4.21308598918130   28.05107693158165
H         3.60148836133833    4.18007441968530   28.44310951807913
H         2.07854077804692    3.28808106507952   28.30809658007065
H         2.05976644370396    5.04627121023876   28.50704917673838
C         3.07510277650806   13.33664555221023   28.25126570128878
H         3.50552824510673   13.40526513555504   29.24741828514426
H         2.16203767761575   13.92666915808264   28.19594332329765
H         3.78974134842769   13.67784332501134   27.49434619103073
Cl        0.54925566579165   13.05248920035865   26.17818705478783
N         2.54339752409929   12.71462823939161   23.79146246284154
N         4.19596229292020   11.05010893371206   25.02208475345731
N         3.88633373669013    7.68819015457383   26.09327951864472
H         4.68959779053488    7.41492055668023   25.54217903663648
O         5.64555438841274    9.27088005594970   24.91444259082007
O         2.07933421218748    7.03916015375926   27.27924387306314
O         3.39704287080170    5.54157829365298   26.16591340198919
Pd        2.46851098879666   11.98948280102056   25.65569386106464
S         2.60081505507543   11.60366994409170   27.92964172792957

