22
CSD_code = KATREC | q = 0 | S = 0 | Stoichiometry = C7H10NO3Re | MND = 5
Re        4.40934524409517    9.63967981538013    2.70345811265461
O         3.22526250557945    8.81887658669238    3.53170203178865
O         4.24767869213961   11.27334886086131    2.44908853548587
O         5.49631292101058    8.78139073169783    1.78483490724044
N         2.71763038402125    9.34771175128758    0.59243221858240
C         5.70364627646083    9.82452215661807    4.45894955108200
C         1.47105452981837    8.94116869909455    1.10518280021167
C         0.50358984969700    9.88687975548781    1.42849677345968
C        -0.69587277073155    9.48665810974715    1.98635735517224
C        -0.94327391236445    8.14502530543970    2.22455930223641
C         0.02020071229705    7.20266255893255    1.90638128087781
C         1.22206662172457    7.59417056520046    1.34744214038822
H         3.18262883305131    8.64579958369088    0.02888174633814
H         2.70373561245890   10.25825417709458    0.14858480049851
H         6.60128374233724   10.37645816509279    4.18673767892480
H         5.17329410550753   10.35657711751695    5.24631864605637
H         5.97904035727982    8.83270591394755    4.81234463912487
H         0.70518965427549   10.93417355378853    1.25489575127692
H        -1.44049462007826   10.22720744436758    2.23797509065697
H        -1.88053081926308    7.83609140976895    2.66172830777686
H        -0.16379906581931    6.15569533056776    2.09595513776868
H         1.98141114649752    6.86314240771126    1.11019319239871

