30
CSD_code = KATRII | q = 0 | S = 0 | Stoichiometry = C12H12ClN3OPd | MND = 4
C        -2.65807985784003    4.56336985349673    3.37923676407040
H        -3.21311158951573    3.97290208233829    2.65833394446030
C        -3.31130894529595    5.47083644895683    4.22534375595286
H        -4.38204542976069    5.57674148007515    4.15455102250225
C        -2.58204276050817    6.20593223347312    5.12188929904825
H        -3.05953790109255    6.91313126182404    5.78412524678396
C        -1.18228977475697    6.03892169368148    5.18518601436173
C        -0.34557921787605    6.74367328311732    6.07092025048980
H        -0.78740543154813    7.45968563007349    6.74673024608544
C         1.00854850344049    6.51740541975392    6.06805611678344
H         1.64216200513644    7.06314591225131    6.75130370191483
C         1.59937449581291    5.59552944074571    5.20230211622632
H         2.66439699262065    5.43077525545223    5.21742556114814
C         0.81664676055558    4.87842874290972    4.31167842555410
C        -0.59559643689492    5.10089808458833    4.29693815540310
C         2.48969153001416    3.50037272822955    3.20402112238047
C         2.52693103594116    2.30054165508775    2.20298019230257
H         2.50200184312001    1.40038685036003    2.83289964418088
C         3.81847291651406    2.32234775490665    1.39313985807169
H         3.82166910776920    3.17301592645144    0.71266270087007
H         3.94339394924631    1.40552435169683    0.82044170147263
H         4.65944964163545    2.43543441141925    2.07183760773629
Cl       -1.79272567203775    2.39569800201521    0.93196726261945
N        -1.35277930978921    4.38617577167729    3.41368275957476
N         1.23419922465621    3.92471966192516    3.41675119301992
N         1.33356604309233    2.26916381376784    1.32176458601307
H         1.14187368627330    1.32176324760962    0.98649209068857
H         1.50567962693865    2.85379238718124    0.49362612385921
O         3.51408243886394    3.90731277554257    3.72270911700974
Pd       -0.21943747471656    3.23017383939192    2.29350341941640

