81
CSD_code = KATZIO | q = 0 | S = 0 | Stoichiometry = C41H35CuINP2 | MND = 4
I         5.02630747355802    7.50248005507367    4.62046469699220
Cu        5.63449432152010    5.27429925030268    5.57540306711198
N         5.45211336001771    3.77455581538798    4.17021874681099
C         4.55931965474089    3.94273389813093    3.20167214240504
C         3.93390179921411    2.88150748584229    2.57085015344960
C         4.25295870046421    1.59238083697548    2.96513647582968
C         5.20197388497088    1.41742974375917    3.96305847090414
C         5.77523771270244    2.53798254772735    4.53276136653840
P         7.47427122326785    4.84222666281200    6.83751740247622
C         8.97673810206201    4.55756520733653    5.84307578154769
C         8.86349370126133    4.63712321939222    4.46010857450378
C         9.98120014172692    4.46944306261026    3.66165685941382
C        11.21322986962059    4.22402512414440    4.24325139783858
C        11.33044317837620    4.15101181859318    5.62349447490079
C        10.21880000988266    4.32164532994438    6.42552843722661
C         8.08637465118919    6.20969954260381    7.88245266807226
C         7.93567378603347    7.48965421372397    7.35471055893065
C         8.38299499892533    8.59117959887703    8.05932270589558
C         8.98631779383268    8.42165083636294    9.29463149765623
C         9.14369540881790    7.14916897606903    9.81982779380881
C         8.69795021331335    6.04237102911087    9.12036168161617
C         7.45552981448821    3.44209818393647    7.99664494042213
C         6.70142738868685    3.57238464214524    9.16290741799727
C         6.59039571589559    2.51410330216969   10.04271796794138
C         7.19791025181403    1.30334210687884    9.75058422978808
C         7.91334459529550    1.15458111732570    8.57401923499690
C         8.04171120188078    2.21618513313902    7.69686322915428
P         3.92011315309709    4.29225009950805    6.91794032128797
C         3.30334930344629    5.74532038551208    7.82462296389294
C         4.25087456056381    6.65624180298008    8.27997728564498
C         3.85879743280893    7.79493017739677    8.95800500183633
C         2.51310077112843    8.03001273995685    9.18377249239711
C         1.56360343625609    7.12498342432646    8.73507734144691
C         1.95170608574428    5.98460021197006    8.05720220874086
C         2.54104217952689    3.94841156988748    5.77800447739576
C         2.07567841803405    5.01118765726062    5.00353695331401
C         1.12766778979417    4.79726133610844    4.02226050492291
C         0.64054469617437    3.52043696424281    3.79338407514181
C         1.10338912101666    2.46061465951730    4.55511097779284
C         2.05291477644087    2.66808194492084    5.53934249463726
C         3.71542878474709    2.94969980032537    8.14445399170690
C         4.23162155165479    1.70201645974843    7.79884642249930
C         4.13475072458078    0.63616487098941    8.67150856054024
C         3.53978619112081    0.81062362734873    9.91039968532848
C         3.05310758161317    2.05552070588856   10.27200234821624
C         3.14089260329613    3.12394832475963    9.39760468624167
H         4.34536994259608    4.96503720931602    2.92272389165152
H         3.21095692386864    3.06564792916252    1.79266543881392
H         3.77960465294902    0.73946816823978    2.50213596302135
H         5.49241737681823    0.43065775116768    4.29030559112184
H         6.52919477221338    2.45503637135909    5.30891318114508
H         7.89503386096327    4.83419348665597    4.01753204078708
H         9.89073194955931    4.53436539392907    2.58735364237702
H        12.08743271900175    4.09459572286315    3.62226663476622
H        12.29490859046294    3.96666322796021    6.07437305028170
H        10.30838268389240    4.27422717292531    7.50228700754262
H         7.45722487209715    7.61889277322170    6.39389289784710
H         8.25445261876578    9.57955777524251    7.64462656399194
H         9.33408357226318    9.28000246904105    9.85044620786944
H         9.61752489566354    7.01564784885780   10.78198466255971
H         8.82043116904837    5.05464068898225    9.54354785731479
H         6.21518020514412    4.51518784847906    9.38244477515922
H         6.02101150171375    2.62927728310416   10.95318858157860
H         7.10855641794271    0.47512538794152   10.43765198128880
H         8.37850596572209    0.20764635250160    8.33955707811823
H         8.61072399896623    2.09833997514663    6.78319541136139
H         5.30206815256173    6.47792983948278    8.07989672086892
H         4.60176681467978    8.50241313235729    9.29519843902802
H         2.20098858477858    8.92398574163052    9.70291958813505
H         0.51387646202839    7.31234085046488    8.90935985767349
H         1.21047607787394    5.28249431043783    7.69887041073602
H         2.45616434613822    6.00804716332904    5.17537945847418
H         0.77373046414399    5.62975709928570    3.43257684965622
H        -0.09945604521428    3.35119253162766    3.02489670701472
H         0.72369972342814    1.46323780833973    4.38336883841824
H         2.40339998745449    1.83229942408434    6.12902300686981
H         4.71684426341186    1.57563443688889    6.83919625304387
H         4.52865983855852   -0.32979505397778    8.38947419006896
H         3.46358585426802   -0.02066780467774   10.59574916334324
H         2.59924284468268    2.19645690619702   11.24265253389174
H         2.76064582728847    4.09262727531419    9.68965075657990

