81
CSD_code = KATZEK | q = 0 | S = 0 | Stoichiometry = C41H35BrCuNP2 | MND = 4
Br        5.36785787905737   10.05419808894924   12.30483727624859
Cu        3.72871541374798   11.24855038526088   13.38184865080202
N         4.53068283134723   12.54816704171357   14.73651257661233
C         5.60977019452274   13.19332284465439   14.30497311806778
C         5.89356380385063   14.49748253245374   14.66844228847492
C         5.01340039432584   15.16189738213840   15.50777537995045
C         3.90003366632147   14.47903442955293   15.97848868634928
C         3.70827962809956   13.17293566983130   15.57361376512878
P         2.34732328678405   12.61038723775522   12.15172740894399
C         3.02479697018696   14.30117038516894   12.20263008032403
C         4.32152199540283   14.41294350145002   11.70076979100935
C         4.97317102686792   15.62963715481856   11.71512280151574
C         4.34341943095966   16.74328685107212   12.24876270151324
C         3.05871694094950   16.63527176032277   12.75362356209244
C         2.39553430666781   15.42066685797869   12.73138445396924
C         2.25614541881985   12.41424317570682   10.34015474252825
C         2.83670321135166   11.29794787317194    9.75048501397965
C         2.79876131168890   11.14743851824608    8.37454621476055
C         2.18598774385611   12.10805588091397    7.58900688868108
C         1.61502496051861   13.22837521073376    8.17576831424644
C         1.65154385743417   13.38751132937086    9.54695531721197
C         0.60656966275359   12.80164123366626   12.64497331103784
C         0.35198551484363   13.21833408329369   13.95133261768810
C        -0.94370946964915   13.29571533662477   14.42229431234236
C        -1.99911073078899   12.92235435733606   13.60623460124518
C        -1.75127271414290   12.46804033123958   12.32184057046029
C        -0.45651539150879   12.40274345852978   11.84033751430141
P         2.20327950069630    9.98341319868361   14.62808834887478
C         2.02525030064434    8.71157483519249   13.33673832336521
C         1.48966174507373    9.13179184485390   12.11983946589753
C         1.39824852671149    8.25851015153900   11.05459251484573
C         1.85718255631437    6.95794877146846   11.19037662572654
C         2.40616567046730    6.53998960883493   12.39032781261695
C         2.49450779086543    7.40987454017418   13.46294302760984
C         3.01891478615125    9.06023175214516   15.96996656122900
C         4.38861431236594    9.24784864171695   16.12609491349497
C         5.07901466279728    8.55416667210648   17.10333040646560
C         4.40267820333472    7.67715073200446   17.93464413337166
C         3.03662372664864    7.49123901290807   17.78586458843010
C         2.34215384471061    8.17653387123833   16.80684908031291
C         0.50246686213459   10.12615062025451   15.28163587193971
C         0.35675832378142   10.76090806231477   16.51460888763306
C        -0.89763552852400   10.97878234175423   17.04701578550105
C        -2.02551410347422   10.58232413620889   16.34521000076344
C        -1.88809760655183    9.96767727373066   15.11268294617528
C        -0.63232897123680    9.74258207381750   14.57770473180360
H         6.26625338544404   12.63347571132427   13.65242280442635
H         6.78269002980803   14.98122374099739   14.29730518484906
H         5.19431524754616   16.18532499229165   15.79986853616340
H         3.19981076082083   14.95079558458741   16.65057627868089
H         2.87117458819694   12.58239367117552   15.93097026223223
H         4.80727855399123   13.53403294644001   11.29392541240489
H         5.97309034597385   15.70985621033538   11.31505930101760
H         4.85240972216310   17.69564911351951   12.26806829681220
H         2.56445331451091   17.50433232546719   13.16401611517088
H         1.38722223055491   15.35178949250400   13.11485737800086
H         3.32834880339867   10.55421597036241   10.36168219321655
H         3.25548313802841   10.28098671771362    7.92058767514844
H         2.15688402760852   11.99144658699827    6.51549249514292
H         1.14448124352029   13.98149973586039    7.56004717847886
H         1.21446522361252   14.26240588755601   10.01065069936407
H         1.18202450163888   13.48491521123504   14.59280916500007
H        -1.13201686608581   13.63493135081557   15.43042492526213
H        -3.01220849604803   12.97698114865920   13.97543525886432
H        -2.57175924310345   12.16147357056392   11.68934461195166
H        -0.27114670158792   12.04605599795975   10.83616972516496
H         1.15661146497388   10.15991099016683   12.01297960287358
H         0.98695305676249    8.59742423463880   10.11435480837136
H         1.80057879511691    6.27628842535526   10.35489230576878
H         2.78091603855749    5.53215522682546   12.49061327297376
H         2.94419930935976    7.08099860513503   14.38862432950254
H         4.90939525460993    9.93614539623437   15.47237983546248
H         6.14355711025819    8.69741346563814   17.21451563633109
H         4.93892944737422    7.13458011408870   18.69939278722402
H         2.51122887060668    6.80315771020660   18.43267777248032
H         1.27784726206695    8.02576764805306   16.68573318697480
H         1.24064769066539   11.06228963592909   17.06440303774263
H        -0.99928101106470   11.45864409039006   18.01014255717582
H        -3.00814730024030   10.75290748913285   16.75976324874980
H        -2.76477481891728    9.65647846641057   14.56312961261373
H        -0.53646072751455    9.25460148249566   13.61822852293361

