103
CSD_code = KAVBIV | q = 0 | S = 0 | Stoichiometry = C42H57BP2Pd | MND = 3
Pd        4.74006336540584   11.63322023333194    4.66299866082889
P         5.33952952231202   12.92570216770683    6.40954738310436
P         4.27474212418354   10.86697527479676    2.58988411514581
C         5.82173840600338   10.31163643541245    1.71832900148875
H         5.63057858743764    9.97605585953074    0.69368363038432
C         6.96323342467933   13.73518831774508    5.98988962278252
H         7.35346919677622   14.31851854879328    6.83309284137051
C         0.77542520511847   12.24731247805423    3.59825330132471
H         0.75812953791681   13.00116989642783    2.82171582464421
C         3.20788948049366   14.24836014946133    5.32472783242500
C         5.39670489642918   12.55079252875050    8.23329216112261
H         5.62393805599831   13.47764656875411    8.77354581871273
C         4.15629366659866   14.30682831082428    6.35272780786423
C         3.47642055048018   13.46192605231391    2.69425036039363
C         6.44618779270886   11.49923172788238    8.58464140491184
H         7.44586537180865   11.87576040792074    8.35881096436835
H         6.27326248272135   10.60394325793977    7.97827558259449
C        -0.32671522214169   11.42784316697692    3.77465337826213
H        -1.19329739246562   11.54506104935948    3.13782235607418
C         3.95081448249444   11.71518096088650   10.12019532286287
H         4.14664807790684   12.61738992802865   10.70496293804270
H         2.95220711159999   11.35851357474847   10.38080431710274
C         2.89715738883736    9.16740023593803    0.70400653262716
H         3.76589071629036    8.52435031506647    0.54173917678377
H         2.93831816672744    9.99133497753021   -0.01095920862474
C         7.99080254914702   15.23827053366296    4.23814924752948
H         7.76583544807850   15.87052663549647    3.37672579839266
H         8.44866681582179   15.86882475390347    5.00518421820323
C         3.82364634006815   12.44031940735418    1.78927585699592
C         7.80638801009430    8.77821075366437    2.09099386510096
H         8.19437711020828    7.97959093401822    2.72742081238155
H         7.75139948495576    8.39364233260123    1.06900707962705
C         2.22743362768925   16.28123503688876    6.21343047132103
H         1.45914206905258   17.04042241793921    6.16762190360797
C         3.69766905888271   13.96099500380759   -0.06638631592264
H         3.77457330530219   14.15322817840634   -1.12726766579840
C         6.78400538706450   11.49975626949676    1.72145691222787
H         6.40007705677763   12.29951749646562    1.08427307290664
H         6.82617086016052   11.88689098583290    2.75255292574430
C         8.74084577180380    9.98182522914142    2.12904952599339
H         8.83289296638088   10.33593999424144    3.15839340894541
H         9.73574369991288    9.69616041671314    1.78107684534074
C         4.99209607905083   10.65295150672792   10.45782313504204
H         4.76278687786757    9.73502606118781    9.91166794177206
H         4.96393760452141   10.42371510303146   11.52510890808990
C         3.20771898301126   16.35043611281451    7.19126403859480
H         3.21639378759235   17.16800437514824    7.89808599566376
C         1.62321939867337    8.35485924379024    0.47409965694762
H         0.75630911361710    9.01012658774493    0.58658144215314
H         1.61476389130886    7.95864662781912   -0.54414923728972
C         1.91262082639894   12.12243129840835    4.39653468512483
C         1.56736191027875    7.73646341949186    2.90869333992043
H         1.52401672025914    6.90313682759727    3.61350463236988
H         0.70217518332964    8.37748300009842    3.09182751029861
C         6.41017992176935    9.17446863943257    2.55806443407317
H         6.45669756598194    9.51497728482483    3.60672045534873
H         5.75486380175766    8.30129163173065    2.52141464233648
C         2.89822622887942    9.70091187394929    2.13199218370500
H         1.99371836273299   10.30849688677284    2.27607058830340
C         8.17962327787214   11.09825485376697    1.25566464418637
H         8.12780142362657   10.75401543697095    0.21934937514505
H         8.84402640142888   11.96495501736629    1.28247008066156
C         1.89172303302899   11.13413945859016    5.38688203944552
H         2.77017984271736   11.01604697191707    6.03487240268898
C         3.92392526998278   12.68735433222122    0.42796077983029
H         4.19782884721816   11.89137805223868   -0.25179202164727
C         7.95153727499319   12.63946341153207    5.58193671943798
H         8.18687949564621   11.99261596381628    6.42958081899866
H         7.45780740473156   12.01498410474428    4.81685691559642
C         0.79531311688418   10.31186356816836    5.56857327094490
H         0.80603796539896    9.55265888687109    6.33921091664923
C         3.28806018406198   14.73837626784100    2.16866785359886
H         3.05465642911347   15.55417341788916    2.83793069286577
C         3.39853550333244   14.98880177869857    0.81105868454744
H         3.25027429417668   15.99126257794175    0.43427556746937
C         6.69872844092551   14.64089174004914    4.78428031283629
H         6.20049776152376   14.03904241659046    4.00571782324923
H         6.01557700109928   15.44603002325411    5.06272701881169
C         2.84230724359268    8.54269857937171    3.12861021480850
H         3.70584900050529    7.88712942085486    2.99217903060904
H         2.87590395161856    8.93859692631660    4.14953582838102
C         9.24575941094923   13.22430999876960    5.02478680878228
H         9.74726875218964   13.79659058174872    5.81026183110697
H         9.91701550827386   12.41604180226381    4.72434692984029
C         2.23217589000472   15.24630128627082    5.29756984815212
H         1.45325248298997   15.19749908097774    4.54953965956265
C         1.52233603637273    7.20818259806659    1.47682612353943
H         2.35535543169083    6.51766893266919    1.32031679978833
H         0.59585918939222    6.65387871396743    1.31231508832267
C         4.16476345765512   15.35760276219345    7.26487819815144
H         4.92396461383760   15.40625966372152    8.03365264386087
C        -0.32125717908420   10.45629521433729    4.76037444650039
H        -1.18049041329109    9.81507325339257    4.89919609898200
C         4.00840921829697   12.04966049194584    8.63408656071450
H         3.78568557363539   11.14558980123966    8.05764922398694
H         3.25389342818755   12.80109608664952    8.38558027299736
C         6.38365211249951   11.13961808537676   10.06807655116937
H         7.12530433016873   10.36877904163240   10.28966253899190
H         6.63447773216777   12.02330586714254   10.66069747615621
C         8.96645456866726   14.13830402664931    3.83688047641837
H         8.53136092985939   13.55647929053944    3.02306082426631
H         9.89995176419771   14.57629068671931    3.47656957085820
B         3.15958318308554   13.10241424246726    4.21736961691453

