42
CSD_code = KAVCES | q = 0 | S = 0 | Stoichiometry = C18H16Cl2N2ORuS2 | MND = 9
Ru        3.81047409957654    6.00872904796886   10.31731899537471
Cl        2.07831778029378    6.12161045578203   11.90553261458347
Cl        2.63724989563581    4.27956617992375    9.24296285915524
S         2.64395848811511    7.66624937634131    8.98018189955661
S        -2.96237200240207    4.66328108989251   10.70090738993654
O        -1.80525336420584    7.08828991455568    9.54522324497913
N         0.37501717078570    6.40172576715372    9.42212605485649
H         1.02445174349809    5.61405555626289    9.57570243309842
N         0.14602268671460    8.58013100371116    8.72745941695935
H        -0.84669824496347    8.35294341685352    8.93393693640407
C         0.95216324372817    7.57094906176545    9.03724799875120
C        -0.95775378714514    6.22421114760221    9.74933813624839
C        -1.28395429729416    4.95163250128622   10.34742325346592
C        -0.49659763545205    3.89695325039649   10.74689038494104
H         0.57236690318827    3.86149449286535   10.63706494865179
C        -1.24561899645851    2.86364334271695   11.32687062730799
H        -0.81388147377074    1.95363304083539   11.70231274968524
C        -2.58252953359813    3.13789427002289   11.36605931160836
H        -3.36842855870430    2.52009069969966   11.75452366674108
C         0.39158993452405    9.89619217930319    8.33614425241568
C        -0.65039198330104   10.80364446654954    8.53563372148479
H        -1.56856861800422   10.46267044066948    8.99119266787550
C        -0.50507822409991   12.12425984922433    8.16175051058590
H        -1.31444642225899   12.81916793700070    8.32667930915675
C         0.67441205951057   12.55585690510770    7.57507441475763
H         0.78804677178685   13.58832096962968    7.28186130100817
C         1.70074512932942   11.65312925788872    7.35888310558454
H         2.61627492751390   11.97970939394360    6.88921719846639
C         1.56757479800123   10.32681467574835    7.73114068500418
H         2.36491222255288    9.62953483050957    7.54111418480754
C         5.76841478806980    6.82490397184694    9.53951463615095
H         5.98153999605376    7.44273205236051    8.67415682525244
C         5.82433792861405    5.42820920685861    9.43376332985914
H         6.07915783182943    4.96006512788193    8.49066713939997
C         5.60134013769425    4.62858947456986   10.58443249130147
H         5.68439826311718    3.54892041303409   10.51172556081049
C         5.33430502714545    5.22947075496214   11.82297944875860
H         5.21024188059612    4.62095979987280   12.71184006686413
C         5.28368945875006    6.64620484676111   11.92232670121668
H         5.11518611469928    7.10861196480806   12.88791265892482
C         5.51560519524941    7.44022294186346   10.79436531849844
H         5.53437866508565    8.52022492397350   10.87874154950708

