57
CSD_code = KAVFIZ | q = 0 | S = 0 | Stoichiometry = C22H25F3N4O2Pd | MND = 4
Pd        5.67710045312851    2.39437604427428    5.94159087457854
O         6.66104789306802    1.10471969788113    7.28988397328791
N         3.16311688636326    3.23780436390560    5.06880137126715
N         4.52164134315013    4.48401025705541    3.96705465464035
F         6.59358835710278    1.54558898765941   10.76860152822935
F         5.79215017748685   -0.19763291172839    9.78629883193399
N         3.67048899889583    1.52172037767117    6.51414037493996
N         1.41708694731869    2.17243579304712    6.16235375266391
C         4.49740412732103    3.47247597412678    4.84244130884720
F         7.88817642433328    0.28076664888690    9.60022577553167
C         3.24320830577373    4.88357407639452    3.64026746292269
H         3.06375677519199    5.68130665872606    2.94865698370182
C         6.31385411798938    1.65171762820940    8.35240567156340
C         2.71835602597549    2.27599432225110    5.95070935844614
C         1.02742434821756    1.24913194636284    7.02652147926309
H        -0.03947627646709    1.18506703566685    7.19070462660233
C         1.92962959779692    0.41767891775425    7.67495968052994
H         1.60884580028013   -0.33113954047755    8.37817961854989
C         7.49125521889392    5.12432660871456    1.88670852275778
H         7.98692365943472    4.73438423007133    1.01289323460025
C         2.38547573425336    4.10498888192293    4.32968786560136
H         1.31744123452261    4.07629743359399    4.37488514759408
C         6.25213403474942    6.16729836407062    4.16793551866061
C         5.71111458140916    5.08535111595565    3.46922218642984
C         7.54847962062221    3.01039949249059    5.36288999125717
H         8.06423987304190    2.08803847642760    5.06559469681747
H         8.01914709752263    3.38490811186890    6.27983427791148
H         7.65384696007366    3.75557050757003    4.57515280531210
C         7.44449647671274    6.70207544455113    3.69828544114788
H         7.90556618931214    7.52564402182459    4.21797077992369
C         3.27402811237148    0.59449843853090    7.37465028914757
H         4.04376065331867   -0.02058377507997    7.82449362126669
C         6.66589303510249    0.82792950170356    9.64176305672377
C         5.57344759519523    6.70082459592285    5.40866021570703
H         4.50146926418366    6.48501970004839    5.34067224602601
C         8.05786641838402    6.18147067121736    2.57398622120789
H         8.99002071498782    6.60396956260956    2.22997811096686
C         6.30072051417602    4.55576212991178    2.31962615441817
O         5.70417974860262    2.70689117033509    8.50898118466194
C         5.67910168912338    3.37569192838394    1.60894430738777
H         4.60658834502289    3.35932866811243    1.83183693866082
C         6.29520078938827    2.07249386293594    2.13103374246370
H         5.86836201233467    1.22381070909086    1.60154798930502
H         6.10583906347113    1.95003250420638    3.20490792865494
H         7.37035121073543    2.07712175120087    1.97140349353090
C         6.12596928622523    5.99714439273336    6.65424064195294
H         5.91787835778914    4.91752754592515    6.63509353971248
H         5.66904130285935    6.41560110364974    7.54754996860394
H         7.20211373230467    6.13834577355304    6.71646787930844
C         5.83011980921945    3.46485040612287    0.08904949327012
H         5.20504140637033    2.71215579497155   -0.38584799377265
H         6.85706427157632    3.28446207837609   -0.21591783742993
H         5.52488185516126    4.44429425776789   -0.27292874638101
C         5.72590282707669    8.21700443627075    5.54903198132921
H         5.47016754882468    8.72073755991367    4.61915468864943
H         6.74119633929381    8.48671989636466    5.82581165618644
H         5.06197311341138    8.57881636849707    6.33045143293248

