35
CSD_code = KAVFEV | q = 0 | S = 0 | Stoichiometry = C12H17ClN4Pd | MND = 4
Pd        1.63135605178361    2.36841078624192    1.25330787646255
Cl        2.13897894843851    1.72394604481852    3.32552135964148
N        -0.44257505265638    2.10775568436573   -0.65624264767396
N        -2.23094672103082    0.90340618933439    0.19567611187305
N        -0.26345710370281    1.24629691475264    1.47014794277905
N         0.95818935908629    3.25407593838092   -1.81889619093846
C         0.79756935117984    2.70406239833018   -0.59531983046088
C        -1.01173578155391    1.39062052480687    0.37362254808858
C         3.40946633384773    3.41058054786002    1.35322166839706
H         3.78171030730216    3.95799961063860    0.48855396677914
H         4.17285956360400    2.68206969967268    1.65452517271168
H         3.27884705416069    4.11768270408123    2.18463785172413
C         2.14684331137903    4.00514575440056   -2.23143551746453
C        -1.02481351156768    2.30134222800357   -1.88807129507041
H        -1.99274636157792    1.90996580811405   -2.11788228460862
C        -0.78657459988179    0.56237255683277    2.48038778106083
H        -0.15861307232498    0.46322042832694    3.35926996474623
C         3.35529260190851    3.07330993158218   -2.08664720828784
H         3.32998662649493    2.31248341893108   -2.86451754416227
H         3.33521930353494    2.57343449065180   -1.11696610165287
H         4.28045578677356    3.63336853688529   -2.18243006289782
C        -0.14155612082072    3.01832787208949   -2.60900176123408
H        -0.22677919382233    3.36744641883157   -3.61502777084026
C        -2.05906754706497    0.01680426521997    2.39127321609325
H        -2.48907505801838   -0.53936338963294    3.20642324633612
C        -2.74863672500500    0.21961804225808    1.20251768828061
H        -3.74404576882747   -0.16963348581255    1.03779459228161
C         2.04357133404915    4.44937186872523   -3.69142087116021
H         1.20584498129141    5.12540793246077   -3.84764796545682
H         1.95201439156002    3.59822211284896   -4.36263055209537
H         2.95446720314833    4.98277445095912   -3.95037447384311
C         2.23364393811370    5.24914943585599   -1.34027635971793
H         1.45659898663861    5.95885024098249   -1.61824966290124
H         3.19890324887617    5.73305648116790   -1.45416706604996
H         2.08880393468214    4.97351755703023   -0.29627582073707

