43
CSD_code = KAVGIX | q = 0 | S = 0 | Stoichiometry = C13H23AuCl2N2Si2 | MND = 4
Au        0.45425235219797    3.23422298319792   13.68298883137185
Cl        1.58767735951326    4.75821309202181   12.51533932193647
Cl        1.53867242595517    3.81720820654683   15.54071565787338
Si       -1.07052472566116    1.10236357201483   15.94095695796429
Si       -0.90182620050469    2.69570805456210   10.54402270488960
N        -0.75502618759585    1.79591559417913   14.34440352821809
N        -0.71014640703458    2.42650098188502   12.28194835326621
C        -1.27088619347319    1.60701852010422   13.14732316235121
C         0.57767570437591    0.33157244900780   16.48919393582157
C        -1.61207087217347    2.56546980447385   17.02651314084710
C        -2.44557884923146   -0.21344646920311   15.85448335777419
C         0.81850673457151    2.40109915286924    9.79306037161711
C        -1.49431102809725    4.49425280028907   10.37889813981780
C        -2.17113350779180    1.48476425115979    9.80097492490303
C        -2.31432893429223    0.62816885519051   12.82508066396574
C        -1.96862853714795   -0.68489433705858   12.53130530571943
C        -2.95535219763502   -1.60532827633040   12.22520954176898
C        -4.28583198587404   -1.22085158189434   12.21520416452457
C        -4.63132454606936    0.08742150051297   12.51014675177383
C        -3.64905288197726    1.01360145914006   12.81310721487688
H        -0.92842384583298   -0.97562765202321   12.54243155954352
H        -2.68536003213955   -2.62509359403897   11.99513194855419
H        -5.05386561709783   -1.94113291032309   11.97730093064834
H        -5.66852592451838    0.38773808315691   12.50298912149450
H        -3.90872630548948    2.03642317257193   13.04339808527866
H         0.90951187677207   -0.45278391412167   15.81367921819031
H         1.35339737731608    1.09086561039281   16.52361296579322
H         0.49573404506392   -0.10008474026371   17.48159620454826
H        -0.82588771912443    3.31356949122454   17.06805865595418
H        -2.50951955408331    3.04721805421677   16.64637979858230
H        -1.81483295890240    2.24488621853476   18.04344922639838
H        -2.17112239245396   -1.05897229242834   15.23304185505786
H        -2.63129238966512   -0.58757820976874   16.85600880299240
H        -3.37920190735811    0.18701626539717   15.47407702021384
H         1.17084682557758    1.38669232864597    9.96194484489759
H         0.81179306894924    2.57405920506074    8.72162047558693
H         1.54229008124905    3.08158660390008   10.23150624659087
H        -0.76051511493099    5.17069965959277   10.80742271285142
H        -1.62606462749100    4.76897430665594    9.33719668751208
H        -2.43994588529861    4.66366354923332   10.88777406701227
H        -1.90023834439471    0.44760727780317    9.96676954721491
H        -3.16853647670185    1.63355462596415   10.19976165288353
H        -2.21797570151775    1.64543824790802    8.72897234092089

