71
CSD_code = KAVJAS | q = 0 | S = 0 | Stoichiometry = C36H28Cl2F2P2Pt | MND = 4
Pt        6.05151028482145    5.80942718217322    4.01647579383801
P         7.65513195123511    4.25253007274400    3.62554405568925
P         4.67397247644547    4.88456843906227    5.54087973843505
Cl        4.66509836830159    7.61735919271164    3.92521734394308
Cl        7.66643832374091    6.62567878790194    2.53824224789832
F         7.67115532030759    2.87350797788186    4.50369425052140
F         9.14364417139153    4.59497731820657    4.09689129709989
C         7.80865010374455    3.10214494919768   -0.28561775813204
C         7.35008668528380    3.92550957913326    0.87072522941796
C         7.94895864995223    3.53455546911318    2.00888598179186
C         9.66077906082081    1.66563945622197    2.55623079143687
C        10.39032907971248    0.63227319120042    1.99045949726865
C        10.29871576019658    0.34899360898060    0.63570748579503
C         9.47831578485116    1.10049253170061   -0.19436169889517
C         8.74763731056602    2.13028114099728    0.35885510499510
C         8.83152133298157    2.40781800556721    1.73276902945911
C         6.00850166716032    2.28546821967236    8.42894666104446
C         5.00802891847574    2.80718005288526    7.44824434370738
C         5.50117064757308    3.85621670400947    6.76373180052812
C         7.77327629317747    5.09758242039743    6.84184567872788
C         9.00876308269661    5.11800768431111    7.46577807841367
C         9.32240736270235    4.19590796742520    8.45379282582330
C         8.40722113609067    3.22786211406218    8.84233797434275
C         7.17689035852116    3.19835605400425    8.22092621570473
C         6.85884082542495    4.12986663116119    7.22308948516989
C         3.67092638905799    6.01044008184911    6.63946780368004
C         2.77438641083749    5.19618712694240    7.50666870835908
C         3.25045735246679    5.14167781872369    8.76041180700681
C         5.29409611556015    6.21051183398457    9.92746686976544
C         6.35762341042171    7.07335698616192    9.72503376693318
C         6.56544376093149    7.67977348593097    8.49343630720382
C         5.72851287040185    7.41785462028041    7.41787646282115
C         4.67875534385751    6.54387169192618    7.61009627046310
C         4.44472463413534    5.95159897401907    8.86261516296955
C         3.43358688257492    3.79394267620045    4.70151082023590
C         2.74144340727306    4.71209539435121    3.73902671970846
C         3.14093360216002    4.46650936074141    2.48278692744606
C         4.60750186105098    2.62722648417139    1.41902513499574
C         5.36282297020469    1.50319193780400    1.70634048045873
C         5.54513869338491    1.08134636484114    3.01541083464355
C         4.96238076258796    1.76423026688663    4.07344925927090
C         4.20059608005763    2.88143556278393    3.79612800266494
C         4.02990497931392    3.32346993976457    2.47093450399184
H         8.31651405826647    3.72191230631755   -1.02937153032484
H         6.97588320064352    2.61203949671571   -0.79397835270110
H         6.65048033319451    4.73639642256216    0.77114364206893
H         9.74247023451827    1.88485676260699    3.60907504832508
H        11.04282990572442    0.03894478993162    2.61374981234806
H        10.87691891230578   -0.46295394856523    0.22008874142895
H         9.41693226376466    0.88236589344886   -1.25071130323208
H         6.26293285621544    1.24134860700432    8.23049713089034
H         5.62634429533750    2.33657121894781    9.45141337101535
H         4.03355023300555    2.36462442849969    7.33865795673150
H         7.52862900915873    5.83991797821965    6.08546616016734
H         9.73747085053389    5.86017530620714    7.17823673259338
H        10.29239738756329    4.23222693923725    8.92694078463064
H         8.65705974020418    2.51367093590052    9.61350863945605
H         3.19696963924698    6.75694196674329    5.99906349461642
H         1.87446541266842    4.72995329088683    7.14519696873580
H         2.81233655205226    4.61159011176161    9.58792568592024
H         5.12864824774885    5.75252796222395   10.89162653299330
H         7.03327317882861    7.28578530205980   10.54046901153559
H         7.39303780249056    8.36186487869450    8.37097421633212
H         5.88215087468226    7.89154770897121    6.45785923781195
H         2.79295669962070    3.29798005381141    5.43198483541514
H         2.05718516914235    5.47906905217629    4.05514843460548
H         2.83057319102346    4.99544160882512    1.59993522997554
H         4.45472701589916    2.94989191210186    0.39990078878779
H         5.81748098245264    0.93895429225120    0.90533160173264
H         6.14448935202564    0.20574730690369    3.21276334984090
H         5.09991211923069    1.42088205745777    5.08732648165454

