49
CSD_code = KAVPED | q = 0 | S = 0 | Stoichiometry = C18H28FeP2 | MND = 8
Fe        4.19733679076899    4.03450333885104    2.01780970990670
P         5.10476904862123    2.49284308381749    3.19735735752106
P         5.74232749285313    5.33104873395009    2.73087204669571
C         2.49957813470904    4.11278604398384    0.69448412692566
C         2.25972462701032    3.21712934416134    1.75906947580468
H         1.95618951592525    2.18904839043347    1.66386016153089
C         2.28812581642036    3.95574713106057    2.97330156237418
H         2.01157266999595    3.58283480846776    3.94370686955219
C         2.59359929381485    5.28679091333156    2.66286073279635
H         2.59644658043593    6.11033592659456    3.35496098837146
C         2.76122957220810    5.38449585265751    1.25508343562785
H         2.89301672714394    6.29891376087535    0.70019216766891
C         2.49966967979531    3.76870714382444   -0.75720046000051
H         2.96691061165054    4.57751837379815   -1.32327608636831
H         1.46796265618275    3.66657259817526   -1.11212512242059
C         3.25690958909038    2.46354754540550   -0.99720860086350
H         2.68721844797958    1.62974988152961   -0.57597549626139
H         3.33531408726503    2.28086072211278   -2.07441765318901
C         4.62907582271622    2.49290072926523   -0.39548283481725
C         5.51762124848854    1.46032232213784   -0.42492924857078
H         5.33431468947822    0.47340031680247   -0.81757745912875
C         6.75570514839380    1.89879281015767    0.13407321633537
H         7.63910103716699    1.28734814183851    0.22847958840570
C         6.61695251312337    3.19730499692156    0.50734346622736
H         7.39911270552610    3.83074536652707    0.89127075756590
C         5.25664057861819    3.63036232666822    0.25432620620132
H         5.11300749419980    4.61723798353043   -0.17359706947309
C         7.06839626940376    4.40700767585568    3.68103215413032
H         8.05464029018817    4.69976984122990    3.31182895948193
H         6.99100252268146    4.73008083485556    4.72286151703903
C         6.87443428623976    2.89432543135333    3.59474263358159
H         7.16603580031579    2.40531049105169    4.52932060026183
H         7.47348167547574    2.47134928945941    2.78794110101313
C         6.68871238852519    6.48690106968710    1.65690188790473
H         7.46831690890562    6.99751918296478    2.22230964950999
H         5.98136805149815    7.22132369417529    1.27251726184759
H         7.12447150237414    5.95674504780206    0.81604599428344
C         5.27819997290546    6.56317106725861    4.02145326193679
H         6.16574982770244    7.04224415875874    4.43495696382889
H         4.72626172857138    6.06633216076825    4.81658721269879
H         4.64087815837186    7.32085722262299    3.57057557287568
C         4.42726445775600    2.38899286053029    4.90979490949409
H         5.05461621531551    1.75838480170072    5.53916721049961
H         3.42671767030415    1.96518802300241    4.86813200462419
H         4.36740163894589    3.38932976160080    5.33397897785044
C         5.18838334035472    0.70482243243403    2.82703397034042
H         5.78747607863959    0.17973094748320    3.57063687457496
H         5.61442382889524    0.57640480317073    1.83554404365561
H         4.17273480704999    0.31176061535654    2.82677540014965

