80
CSD_code = KAVPIH | q = 0 | S = 0 | Stoichiometry = C38H38FeP2Si | MND = 8
Fe        5.31782668726427    3.79450992923943    8.32876615776782
P         4.17278678435602    2.49993164493882    7.10268209127767
P         5.48155185337028    5.04322951088069    6.64430344986994
Si        4.42198455350376    5.08128105134711   11.20090190283033
C         5.71019180609643    3.99160997100822   10.38135891436052
C         5.64434186771625    2.62722594131216   10.02770825429702
H         5.02477460189385    1.88086288757635   10.49457124559530
C         6.67639152334709    2.35841715296019    9.08321144727808
H         6.93720958438703    1.38570855960994    8.70035091758533
C         7.36111776591800    3.55385512384557    8.83444598966136
H         8.24441446604171    3.67115848123769    8.23082611689972
C         6.74489660735547    4.57232502966112    9.60295780990404
H         7.09298233781989    5.58800996313610    9.68661492735943
C         3.78524465005705    4.96091844852075    8.60273617773768
C         3.95841954107455    6.05676670852580    9.61019951535750
C         2.63450827304549    6.70327963455081    9.69672896221291
C         1.76640342367202    6.00631186370805    8.94079065153137
C         2.47043530928007    4.94315470995065    8.27668005295656
C         3.66262086957148    3.31557132150650    5.49669078652849
H         4.17671933609261    2.81598791013048    4.67289067816752
H         2.58686009939984    3.18246985362550    5.35049192526680
C         4.03004127317311    4.79940192812956    5.51711900368396
H         3.20709332036863    5.38020747647023    5.93545451873508
H         4.25862941805134    5.17419901554925    4.51395242234810
C         5.19121721052965    6.21582580838833   12.52544056837689
H         5.48766040356363    5.64450870561880   13.39851366705311
H         4.47855446050508    6.96730938235907   12.84851591795538
H         6.07023122229919    6.73092671874597   12.15271482871360
C         2.92793090150264    4.13772191591958   11.90763453253508
H         3.18474622917698    3.12207869637956   12.19007837555371
H         2.12580919246139    4.09512955406752   11.17842006075057
H         2.54504676221705    4.63715662932034   12.79125979521295
C         2.62322376065515    1.73365605763346    7.69204252715923
C         2.28718365735009    1.91421485323360    9.02603789485645
H         2.92846742527241    2.54339175859196    9.62530472937154
C         1.14950124720331    1.32297069606784    9.54341438815873
H         0.88631565308433    1.46833083585240   10.58133870349230
C         0.34558030564354    0.54474967974788    8.72603383740360
H        -0.54561411228285    0.08248834048304    9.12528554485401
C         0.68310419377164    0.35485587868519    7.39505139844971
H         0.05640303693781   -0.25693388376204    6.76179902946865
C         1.82257682229696    0.94286068782529    6.87636493326576
H         2.09772419676936    0.78481520115731    5.84153405161893
C         4.97434876805562    0.94267083958616    6.56186862537919
C         4.98173426375754   -0.08461818734237    7.50551008522294
H         4.45710145563629    0.06224416380566    8.44031685461647
C         5.64394987075783   -1.27076774708055    7.25961702343962
H         5.63557601748482   -2.05795459018377    7.99982180521927
C         6.32388137791777   -1.44841733243240    6.06463024596660
H         6.84353054062144   -2.37460978521554    5.86790009263207
C         6.33928929789588   -0.42934222539369    5.12874311473981
H         6.87452300453895   -0.55761871013181    4.19861550861422
C         5.67590448361949    0.76051092014230    5.37613617759407
H         5.72324800382630    1.54535293478748    4.63523500581819
C         5.65605130542768    6.83884060454228    6.82392027951291
C         4.59902712829342    7.74010802129206    6.78971295951603
H         3.60274037633087    7.40024959581373    6.55287485308824
C         4.81848391812904    9.07523144023253    7.08100312922300
H         3.99354969131762    9.77215708458040    7.05062462295492
C         6.08533225193179    9.51888102757571    7.42158372071096
H         6.25006953172213   10.56136314798139    7.65174071019976
C         7.14109141653543    8.62158250883279    7.47733101267595
H         8.12844217472203    8.96365041980088    7.75331042332280
C         6.92447975247407    7.28926513662276    7.18642105685888
H         7.73636795065224    6.57414182350324    7.23328619316993
C         6.82109209537022    4.69576150434568    5.44243415168199
C         7.17066434624248    5.57703578825273    4.42425516932028
H         6.67521148033160    6.53634501574832    4.35192041634385
C         8.15284564534238    5.22811456525609    3.51559046438786
H         8.42612185932138    5.91547242939085    2.72768638361473
C         8.78696777382184    3.99875153599373    3.61108162598765
H         9.55385874165557    3.73170945630184    2.89849658808181
C         8.43720750190855    3.11517398700739    4.61862123944368
H         8.92662061685261    2.15452579959417    4.69378170449996
C         7.45819008397039    3.46596821007279    5.53085144665279
H         7.16824333334693    2.79433902873564    6.32799419924220
H         4.78168216041958    6.73427873652589    9.39823148866941
H         2.42997952811056    7.56656728387365   10.30479887077330
H         0.71259859193485    6.19912429271844    8.82001355815023
H         1.97958513790971    4.25025964112552    7.61082048920962

