46
CSD_code = KAVPAB | q = 0 | S = 0 | Stoichiometry = C21H14BrFN3O5V | MND = 6
V         4.07033485985115    2.99986199212884    2.36847107188629
Br        1.56332464097838    1.75850091013737    5.80130793966547
F         4.91237118384542    7.10932862786601   -0.96526096471565
N         3.89149196439228    4.97502133611731    2.14913551844469
N         4.43199002567755    5.46989768925720    1.04243961130410
N         3.17421364621227    0.85652420168065    1.03745638560729
O         2.77074586794255    3.15449261775078    3.49002960881489
O         4.78076832196506    3.28880836419650    0.63796379797967
O         2.21752554393390    2.86093414222062    0.89357850408196
O         3.97952148137444    1.32609035272228    1.99219270431337
O         5.31430565893332    3.18201948511768    3.22178721738172
C         2.88895673917976    5.37283386062359    4.28785792157469
C         2.55827234214839    3.99974913307942    4.44326498669137
C         1.96044668990753    3.60096425094359    5.64924393741112
C         1.69183258628082    4.48965968748819    6.66511429577136
H         1.23899258970915    4.13949760885264    7.57982444864266
C         2.00854907842782    5.83506910822971    6.49343494687435
H         1.79471672233875    6.53314218319873    7.28714081213913
C         2.59115625241626    6.26948572935796    5.32336812805250
H         2.83998972516220    7.31202736013639    5.19384799740383
C         3.48531340671495    5.79602137609340    3.06009268423779
H         3.61424224446742    6.86313201704356    2.87516254591079
C         4.91152214049730    4.50946886070134    0.29343967934277
C         5.61901016513246    4.83832012373656   -0.95458653736608
C         5.60458253703383    6.10959400218711   -1.52922382321807
C         6.28386131876558    6.37691535592023   -2.70481341051070
H         6.24537568266805    7.37299823567989   -3.11728507877284
C         6.99825268854433    5.36713780775090   -3.32561914364807
H         7.53216839370846    5.57454744108795   -4.24035786007868
C         7.02640618111374    4.09552238709553   -2.77380247759354
H         7.58419630143255    3.30846910522815   -3.25746975421436
C         6.34229337264345    3.83606810366999   -1.60287160566073
H         6.35850979278788    2.85355500900088   -1.15368944558636
C         1.39419625066875    1.16562010282468   -0.57026616957989
C         0.90621031564981    2.06742881391283   -1.51402367874604
H         1.18699898502633    3.10672803148376   -1.43097675083748
C         0.08444697960051    1.63011960263430   -2.53556005462590
H        -0.28513892802451    2.33270500295505   -3.26695731825030
C        -0.26697575547584    0.29243766126323   -2.61616231243913
H        -0.91121225589940   -0.05047704461346   -3.41167279559993
C         0.19946649618954   -0.60562111196410   -1.66918985796833
H        -0.08791430945168   -1.64485298183076   -1.72379614453221
C         1.02906143067310   -0.17682033895336   -0.64885023825505
H         1.35998561487889   -0.88223879577251    0.09906088524660
C         2.27183891342195    1.69776237193888    0.49727229182269
H         3.35209611655642   -0.09534978018127    0.72904750159808

