51
CSD_code = KAVPAZ | q = 0 | S = 0 | Stoichiometry = C18H30P2Ru | MND = 8
Ru        7.98949661250917   12.06913896755986    3.55613038941420
P         7.05420819611684   12.70096322620111    5.53732661398055
P        10.13412595508493   11.94895100788039    4.28995447554318
C         7.14232441842819   11.72055428639230    1.49258354300506
C         6.35426602389354   12.69094081384924    2.16130298446292
H         5.27759043500414   12.66426760748507    2.26348208006995
C         7.17269896412593   13.84069438586720    2.38477466755255
H         6.82009274129774   14.80612948453494    2.72386497529219
C         8.46346374321999   13.56079523638816    1.90993432781906
H         9.27551582150518   14.27202836448987    1.82395944607708
C         8.45751622773458   12.23182629705574    1.38007811917214
H         9.24275659996566   11.79283490435881    0.77701454927776
C         6.67026938674376   10.40362796731052    0.95893506763685
H         6.16893842350665   10.56212493896004   -0.00397590536860
H         7.53391363097844    9.75710701901691    0.77630850206951
C         5.70421086618801    9.71850307918895    1.92810435051031
H         5.51890705745040    8.69567404527008    1.57874286943863
H         4.73943074292410   10.23633240564981    1.90903420834440
C         6.21317435014780    9.67025142119542    3.34209625178310
C         5.45783219739444    9.29768659333219    4.41392844758371
H         4.39972945623628    9.09003959003112    4.40230436387274
C         6.29597336135246    9.20099722355402    5.56626188439520
H         5.95418788983924    8.92081493547415    6.54975803312274
C         7.56484964823011    9.51714242514474    5.20072276071722
H         8.44141855311407    9.46180363113879    5.82276242390636
C         7.58477670785073    9.89582542529632    3.79388451734096
H         8.39466401330024    9.48973713548199    3.17938409172132
C        11.36910574476209   11.71297602269765    2.94518401532764
H        12.37983745645562   11.69906085676498    3.35272985344566
H        11.28205970772547   12.52113179871528    2.22184097251019
H        11.16779552016761   10.76629144392557    2.44524811726205
C        10.81495837405385   13.48780598821701    5.04340187452220
H        11.89387437719055   13.41344904769164    5.17519637519408
H        10.33993316363895   13.65099191685690    6.00933143604804
H        10.58378713147023   14.33093225016981    4.39420934786016
C        10.82306107055225   10.72559866419051    5.47977342091723
H        11.88501998292586   10.91469253152891    5.63777248957581
H        10.68585823328788    9.72593094719515    5.07182320074458
H        10.29442321751990   10.79569861628593    6.42777276819553
C         7.57336804023157   12.13632860030324    7.20774705552231
H         7.00555398483124   12.66805752501333    7.97115185501922
H         8.63610400905128   12.33298829867655    7.34052064501384
H         7.39279102301232   11.06856968775534    7.28944508012104
C         5.24237664828039   12.47004715004241    5.66716336207174
H         4.87262941004434   12.83037212989420    6.62677739667417
H         5.02728352634457   11.40896467051095    5.55498367068908
H         4.75966456278402   13.01595304431660    4.85782225466775
C         7.13036928315647   14.52109604668152    5.84784626662171
H         6.66404040853810   14.76418691769793    6.80216988866089
H         6.60400084225345   15.04355492780751    5.05232617499347
H         8.16727225757943   14.85102849895273    5.85440443959986

