48
CSD_code = KAVRAB | q = 0 | S = 0 | Stoichiometry = C24H20Cl2NbP | MND = 8
C         6.29594358418027    0.36918010959864    3.03446667852124
C         3.83647124818763   -1.87073062448751    1.77880945900997
C         2.79914196868704   -1.03833335221321    1.30189008437731
C         2.06951237681525   -0.57040176409761    2.39756363835520
C         2.61924238885194   -1.12096705732597    3.56589883249514
C         3.71834670827752   -1.93121413736924    3.19852413937331
C         9.11807121187748   -0.46857181399805    2.85368309769374
C         9.13742483387525   -0.70207262252139    1.48072885545890
C         9.98118914752473   -1.66412399068684    0.96051270418070
C        10.79402121950203   -2.40247250244775    1.80874722782469
C        10.75539701721219   -2.18584827910224    3.17624851600221
C         9.91382859340672   -1.22202519436928    3.70614531851113
C         8.15213400413229    1.03285872833335    5.20260356984956
C         7.06157973430683    0.84409698686208    6.04230912209801
C         7.19928960136829    1.07692441520636    7.39931295889108
C         8.41628399255123    1.50018827699714    7.91075591608983
C         9.49901817040919    1.69958058293388    7.06783839011432
C         9.37066716139501    1.47131174921009    5.70970870982295
C         8.37685246349313    2.33284095559232    2.63313004719206
C         9.67361896764145    2.60945266906085    2.21793410469631
C         9.95417090358417    3.83170061304130    1.63233264822780
C         8.94792656318159    4.76896379558807    1.46348967109769
C         7.65458075215121    4.48923658845131    1.87892350611964
C         7.36373149932325    3.27123916048391    2.46518782974232
Cl        4.40751454458594    1.67872657677386    0.76865254128065
Cl        3.66214361616960    1.88873583948278    4.14543133047998
Nb        4.44618320020279    0.30260017871263    2.63724403332294
P         7.90767628070325    0.75981611580153    3.42060397214169
H         4.45913487841798   -2.52102973374294    1.17384489900924
H         2.58258442509983   -0.84195701834951    0.25948382082284
H         1.20129127793530    0.07178448828779    2.35346123437930
H         2.21772567786508   -1.02189220910688    4.56753391553424
H         4.23204085914421   -2.63719613845219    3.84176548175500
H         8.47871436999369   -0.12160900830382    0.84578225008183
H        10.00622608244900   -1.84436844653544   -0.10403043313887
H        11.45397129541471   -3.15452165215187    1.40210156900693
H        11.38109720547078   -2.77205170459330    3.83351512051853
H         9.87479152555462   -1.05260633299292    4.77314394975721
H         6.11826025066197    0.52652824489803    5.60425731992253
H         6.35647571950079    0.93444200134291    8.05921147948172
H         8.52148484602034    1.68315263960203    8.97002315371428
H        10.44265591931635    2.03757141520720    7.47082135895803
H        10.20643050729951    1.63351292921330    5.04239717589695
H        10.45326571807246    1.86956281465487    2.34128968615894
H        10.95933539734019    4.05186481584598    1.30321083745793
H         9.17231635135802    5.71916193848370    1.00179428777156
H         6.87197786072942    5.21985110420641    1.74076311841046
H         6.35625807875380    3.01740784898247    2.78575287154029

