127
CSD_code = KAVTAD | q = 0 | S = 0 | Stoichiometry = C55H59BN8NiO3 | MND = 5
Ni        3.11979066892505    2.66787842888917    5.34090606508185
B         3.88694666292436    1.58617182709354    8.10448944034308
H         4.05656775951114    1.27588855334902    9.22895061886724
N         4.71551634294415    1.06516868870649    5.83603606369711
N         4.76756958213546    0.78066531199051    7.14441443832929
N         3.65834615530286    3.76075130947312    6.85433322397543
N         4.17326448384945    3.07943103280391    7.88709607424453
N         1.94083600032697    1.82031171127289    6.52466585999750
N         2.41253915858381    1.36517180989181    7.68973136623770
N         2.38868658656244    2.20990152338411    2.64201113088472
H         2.60365558163649    3.23894346939834    2.56064319066522
N         2.51797970803531    1.59012070773250    3.81893102793508
O         4.24988031463908    3.81212398636234    4.30448907880787
O         3.23766663171418    4.68256240992921    2.51825310636053
O         8.28841099905678    8.44106562037687    3.11415554624527
H         8.13011118684921    9.07616719144569    2.40850757939756
C         5.44632252543916    0.15509715779928    5.19581975432546
C         5.99747027902677   -0.73709300219143    6.13088439918989
H         6.64826709756863   -1.56510129168692    5.93506129919643
C         5.54633674025346   -0.30148561980571    7.36001131881903
C         5.54224339046050    1.27371234346315    2.98805773047815
H         5.59525841362890    2.21994860695140    3.50131216471913
C         5.48960859867220    1.22072573281244    1.60820454190635
H         5.49025411631953    2.13694678184034    1.03491651631722
C         5.42759135628368   -0.00183932028675    0.96016515729128
H         5.37210140943403   -0.04217069459474   -0.11818172996849
C         5.43773332062633   -1.17271744077251    1.69994364157507
H         5.40040544940802   -2.12894172804879    1.19704629175802
C         5.48069982033129   -1.12379722044175    3.08076589160489
H         5.46513590381161   -2.03881315993323    3.65593726415363
C         5.51398024941179    0.10265199881395    3.73974960974361
C         5.81403197322853   -0.86918843478038    8.70811380191743
H         6.52755703657915   -1.68460662959065    8.62424761071597
H         4.89762067954406   -1.25166825825217    9.15603221622922
H         6.22159187025910   -0.11034066068156    9.37350130631593
C         4.03407971539395    5.03939704240006    6.97276089855436
C         4.82978148614234    5.16643093869576    8.11839959116376
H         5.27151054604556    6.06264045640059    8.50374848229452
C         4.89347208877087    3.90214159358199    8.66937180011651
C         2.40318769786993    6.04964140557690    5.40999143469475
H         1.75702564851747    5.19965595085760    5.58583944850035
C         2.02023216260260    7.05806811676876    4.54817269635587
H         1.07916146778174    6.98902505088728    4.02264772840476
C         2.84346528192482    8.15557617071967    4.35752863352920
H         2.54437043774360    8.94394563611401    3.68176258884547
C         4.04488530155810    8.24285487630571    5.04035831020346
H         4.68938343443457    9.09837251216786    4.90094597329670
C         4.43339700118776    7.22994645106752    5.89506896343142
H         5.38141011479114    7.29251999196656    6.40588537367046
C         3.62183016327640    6.11304657271354    6.07928556091923
C         5.61832742238955    3.46055622200264    9.88870408222534
H         4.92490522588720    3.07377641472263   10.63355777207517
H         6.15865230604408    4.30170771478857   10.31458696270578
H         6.32702920275457    2.67172233804602    9.64371302333109
C         0.65493349090946    1.46943604609234    6.42128627888370
C         0.29780849609354    0.76052551468906    7.57544668859331
H        -0.66446808285527    0.35852741261991    7.81832409272952
C         1.43796883244467    0.71860213860810    8.35458883365871
C         0.05596734949711    2.89192682678401    4.47690974127371
H         0.84617000467539    3.58080669640762    4.75941017763393
C        -0.68941048513928    3.12825058457825    3.33848407184055
H        -0.47886542733176    3.99484855441328    2.72970287944346
C        -1.69674245948769    2.24980638653366    2.97488862752134
H        -2.27504596349704    2.42797672665673    2.08059043073116
C        -1.95777848680217    1.14068414832943    3.76223758557008
H        -2.74494573097966    0.45488586060488    3.48437113472170
C        -1.20676003186396    0.89764139430542    4.89695728523638
H        -1.40244613116795    0.01841797213911    5.49308988004232
C        -0.17872806713015    1.76510372494671    5.26191017641858
C         1.61869374196831    0.08505242366647    9.68618520508648
H         0.68158012303243   -0.36333200113092   10.00491050570055
H         1.92703528362119    0.82208667099427   10.42514210612832
H         2.38279663697781   -0.68878080151153    9.64215228450417
C         2.04699686118333    1.35525524334517    1.66568506703727
C         1.93568688807745    0.10685367583299    2.26673824082266
H         1.68751240822229   -0.82694658530247    1.80715830926478
C         2.24097761697376    0.29889287192199    3.61260561641616
C         2.20731008276480    3.03560528233482   -0.15497903916552
H         2.62050342941571    3.75429176849772    0.53474828277394
C         2.02907334923669    3.39051604859084   -1.47898067551171
H         2.30201185214608    4.38327506930909   -1.80616113075785
C         1.50555075055975    2.48493001704166   -2.38700337056833
H         1.36888335781631    2.76776473069142   -3.42050295699438
C         1.15776666945981    1.21348515209621   -1.96162643818470
H         0.74763668603050    0.50206937826101   -2.66386053362358
C         1.33276113504491    0.85119616467652   -0.64015430032044
H         1.05462911029764   -0.13944200785583   -0.31550905253859
C         1.86004218127560    1.75568452370898    0.28232114327600
C         2.22392221507433   -0.76067136140018    4.65656207610836
H         2.80353658504994   -0.46498881737627    5.52308624649654
H         2.63977593241054   -1.67890963015874    4.24793686637278
H         1.19910162583976   -0.95907113113539    4.97096804833261
C         4.16083315012643    4.63795014340225    3.35418289764772
C         5.27915137108023    5.62543178746948    3.25542431848532
C         5.20643699388078    6.64719534499493    2.32610011454056
H         4.34632963926346    6.65101483638508    1.68017055785189
C         6.18905676486070    7.62137865334575    2.24593875337679
C         7.27266836292513    7.52804722832718    3.13729239136301
C         7.36513173811245    6.49773445512533    4.09313601509188
C         6.35338188101879    5.55726481522163    4.12896773185779
H         6.36148098441221    4.74775907227890    4.83778078977633
C         6.06780629467203    8.75374703055919    1.21924725344008
C         4.78189409544742    8.63498817597521    0.38753386557681
H         4.72785707130292    9.47171623004598   -0.30708650124022
H         3.89892024583172    8.66639750581273    1.02009694753863
H         4.77075323394745    7.71624092875144   -0.19276261706145
C         7.22638298379270    8.69934134534447    0.20432466015394
H         8.21651302534184    8.83592745568343    0.63274295637563
H         7.08843086115931    9.47118502500513   -0.55140426044830
H         7.21978225994261    7.73113168607864   -0.29274979106830
C         5.98178202604714   10.12124997013745    1.92391052398114
H         6.80305702566752   10.33390028073863    2.60349190448712
H         5.06332422942030   10.16204012101604    2.50614165538819
H         5.94970490175564   10.91760046765008    1.18177842897973
C         8.54217244126963    6.42154705644729    5.06081783287587
C         9.84365580848524    6.23622730176018    4.26820116916732
H         9.78555628494437    5.33543230595286    3.66047437204177
H        10.68565738220844    6.14042351280770    4.95076443785495
H        10.02450872712986    7.08467075269243    3.61700097280251
C         8.61669201004299    7.70468461990809    5.90035247827833
H         9.43469599521219    7.63357963582440    6.61456073670614
H         7.68981907831600    7.84880665437386    6.45195548063761
H         8.78485297461215    8.57277722999770    5.27281784154338
C         8.41559132902135    5.24216163226219    6.03231572808054
H         8.41163945395255    4.29263201545307    5.50260605363641
H         7.51155525569669    5.31651066829885    6.63280986513405
H         9.26929753071804    5.24487918342308    6.70791212840803

