52
CSD_code = KAVVOS | q = 0 | S = 0 | Stoichiometry = C23H25FeO2P | MND = 8
Fe        0.75847678654251    2.05242880576122   -0.02332451747570
P         0.70317744316544    3.99887350687084    0.94162996236817
C         0.03997985621788    2.57829238975267   -1.50297144577509
C        -0.96453479131644    1.60671022814716    0.60016618373815
C        -1.87754095315471    0.73116609801532   -0.22121687467199
C         2.61185500576251    1.10436326825767   -0.85596709966282
C         1.58083088232098    0.14486922804369   -0.62022945281623
C         1.34494280269224    0.07469670891757    0.77706918733662
C         2.11362748008452    1.07173019033721    1.38742235768840
C         2.91517747858780    1.69533575506153    0.37593407448164
C         3.28757168162636    1.35678520200922   -2.16617541245675
C         1.68375569994345    5.29334224036180    0.09595545650910
C         2.22055278776835    5.00468764447076   -1.15223817444050
C         2.95296023314951    5.95653875986139   -1.83952402065518
C         3.15623297174938    7.20711951461022   -1.28069591230251
C         2.62834050114376    7.50150384415182   -0.03314954324564
C         1.89610803834430    6.55104150978281    0.65369803236200
C         1.42537678178134    4.03574513378908    2.61716354511677
C         0.66953790510972    3.59793015822144    3.70123213941923
C         1.23279191276037    3.53488328790757    4.96272828779444
C         2.55741364844752    3.89311963703967    5.15470871359641
C         3.32239804196581    4.30393888264163    4.07559603884308
C         2.76311808981052    4.36825569450761    2.81238342021979
C        -0.86873174358653    4.93487283224410    1.21718739219454
C        -1.56902450827889    5.20651788791325   -0.10646020541692
O        -0.42961747918542    2.85748507330408   -2.52000498051842
O        -1.24653027002322    1.95039710745455    1.72542266372891
H        -2.59542468404078    0.22016006206893    0.41843462245814
H        -1.30639684140690    0.01355805919952   -0.80060297403500
H        -2.41696396729165    1.37020829553986   -0.91674860629522
H         1.22130811425472   -0.55935878784781   -1.35483923982577
H         0.70244085195161   -0.62992387189819    1.27792649289310
H         2.21791466734767    1.23218183153418    2.44739318070396
H         3.70179703399372    2.40977537414917    0.55963834216873
H         3.83857670886860    2.29423331710170   -2.14037579945854
H         2.56215483578512    1.39762516756037   -2.97592526148541
H         3.99162199354438    0.55209459603201   -2.38475437472438
H         2.04887102712144    4.02274227629021   -1.57283164208749
H         3.36445018030796    5.72458480046222   -2.81111190293079
H         3.72718488261562    7.95277615715853   -1.81423161008231
H         2.79018061328534    8.47591005214308    0.40484677511100
H         1.49834008720359    6.78109284569801    1.63290886912838
H        -0.34965865875101    3.28134453227352    3.54446292967785
H         0.63871348192841    3.19746822908491    5.79968754395560
H         2.99625685239949    3.84205428625814    6.14047232972816
H         4.36003703721833    4.57036787851672    4.21784388858738
H         3.36733545227565    4.68288722753129    1.97221361536480
H        -0.63141226360976    5.87040805860750    1.73347572860161
H        -1.50965153451417    4.33117558775588    1.86050714890268
H        -2.48320297455795    5.77498433664048    0.05361901473463
H        -1.82617011206668    4.26563528441790   -0.58863407676186
H        -0.92334906729042    5.77028381428962   -0.77881481028871

