46
CSD_code = KAVWIN | q = 0 | S = 0 | Stoichiometry = C22H16O6SW | MND = 6
W        10.88769161718464    5.82634151056726    4.40951177102654
S        12.07889709796522    8.14527406322644    4.56260418733531
O         8.80817800452728    6.84820990098821    6.52936114600898
O         9.11298260913635    6.97971165696201    2.08932988131093
O         9.47465939397160    3.04423258614813    4.24403084776857
O        13.09891910810403    4.91388942480522    2.38309811394567
O        12.81383901951419    4.82394242237257    6.66995384975115
O        17.01202526176706    9.17898506199342    4.74637383573948
C         9.55892757665787    6.47948572933640    5.75715851682093
C         9.75119330636683    6.55775629000049    2.93223920655821
C         9.99001030624902    4.06457987711853    4.30359268202806
C        12.26602416360004    5.24064289229288    3.09385477972285
C        12.08127974632597    5.17742348302402    5.86705248949578
C        13.68941241650328    7.76396529345707    4.57436781776887
C        14.73576917108393    8.69999684361499    4.68445957065049
C        16.03984356030670    8.26137172825558    4.79671690581822
C        18.32632628777330    8.85862317251298    5.17999528716425
C        18.41278327801763    8.80079488397783    6.70053810104001
C        16.34879961549878    6.82271574567474    4.91536613664493
C        15.89738377674092    6.09431638666739    6.01469079830080
C        16.14985509408191    4.73797082209520    6.10238493928827
C        16.84991185861753    4.09528794780775    5.09433008687917
C        17.29939343475685    4.81230845607379    3.99795669664962
C        17.05471580043012    6.17058181541843    3.90643438246042
C        14.44396767712139   10.15079758542355    4.65330546942692
C        14.83926956405633   10.96940189423936    5.70491757972775
C        14.55661118042340   12.32241457032358    5.67971867050475
C        13.87935671490497   12.87112573001081    4.60381459928289
C        13.48318255357519   12.06076369628554    3.55354158238429
C        13.76202702267370   10.70668967751736    3.57721889448491
H        13.96338015153298    6.71792313157799    4.50353921221148
H        18.94250842804978    9.67362921362102    4.79351939537795
H        18.66607154377128    7.91302177446168    4.74593091752216
H        19.44509590656145    8.64767396060001    7.00098219598426
H        18.05508929470283    9.73313448851463    7.13028197870011
H        17.81081049788505    7.98031445140539    7.08541350945286
H        15.34603391819322    6.59812743495291    6.79551680422391
H        15.78871810043796    4.18177281727136    6.95352833660428
H        17.03868753861727    3.03470086797531    5.15957253948817
H        17.83486043148171    4.31210705899744    3.20524875302696
H        17.37859039007927    6.72456791787381    3.03651339141328
H        15.35682539602767   10.53974136736740    6.55034087747787
H        14.86280987233836   12.95067234368052    6.50349583359031
H        13.65910533771386   13.92822876273420    4.58538136046362
H        12.95375708461137   12.48429410086326    2.71298111731800
H        13.45641989005787   10.07578915991757    2.75573495112908

