44
CSD_code = KAVXAH | q = 0 | S = 0 | Stoichiometry = C21H16N6Ni | MND = 4
Ni       -0.08745963565883   13.29819048594938    2.78075883418252
N        -0.61246177744459    8.60170153907785    1.00887597229561
N         0.36523825138817   11.50177491353516    2.90945317526384
N         0.95605065588887   13.57327737891395    4.35799162285306
N        -0.48566156559022   15.16431519888078    2.68045898783036
N        -1.07847594753951   13.10008930962394    1.22264177235040
N        -2.04553618905647   10.21004301133463   -0.69914402549029
C        -1.29435674262750    8.05541280194860   -0.00184828221899
C        -2.03234306989597    8.88739352272225   -0.88721505252591
C        -2.74528147460945    8.30591558149947   -1.95703130286017
H        -3.29882227144589    8.95386805993326   -2.61885053645745
C        -2.71701309889686    6.95076549614639   -2.12578372620559
H        -3.25881719679684    6.49462256988945   -2.94175842998212
C        -1.98769982752839    6.12628643675140   -1.24726955642806
H        -1.98880698476377    5.05824633705978   -1.41096407519305
C        -1.28724428429969    6.65878321513038   -0.20252872609655
H        -0.72275576356072    6.04366421162162    0.48106324247430
C        -0.62084667635352    9.91306204154639    1.19792786844216
C        -1.37544575918597   10.75573687865599    0.30520970483347
C         0.19176464263327   10.29469618759111    2.33267781544792
C         0.95231738332910    9.32620373599196    3.03697747947951
H         0.98856399463057    8.28762497193940    2.78061505978694
C         1.59760661109005    9.96791356444643    4.06403909150184
H         2.25759363259718    9.54549941172848    4.79672048450751
C         1.22060132734399   11.31800984575555    3.97400510470969
C         1.51657613738872   12.46085082464417    4.73052806252000
H         2.17778054599112   12.41596238318060    5.59383351858640
C         1.20118754547698   14.77526393552745    5.11995468483684
H         2.15360092944145   14.68835849625961    5.66008816928622
H         0.39868159516587   14.89845147505724    5.86112072772900
C         1.23223931659831   16.00765147906768    4.21625993073928
H         1.51124292145115   16.88205837412000    4.80573017196790
H         1.98009206704692   15.86124657514388    3.43300713208155
C        -0.13304647342665   16.24490995413482    3.57110016846751
H        -0.89223643846263   16.31775260399800    4.36283239854202
H        -0.12219452418105   17.19533574837627    3.02066483594467
C        -1.16586667135066   15.42579297058156    1.60372108514358
H        -1.46398392788755   16.44112962553154    1.34930967571804
C        -1.50693538440973   14.33614749217626    0.78984489904997
C        -2.22778319025853   14.20581575040714   -0.40864391281466
H        -2.67299986256311   15.00674154137780   -0.96645279530760
C        -2.23719578572021   12.86487745256415   -0.69989970826253
H        -2.69169193750539   12.37356045439226   -1.53519521025011
C        -1.51997509644231   12.19529615578525    0.32467366352002

