37
CSD_code = KAVXIO | q = 1 | S = 0 | Stoichiometry = C10H20Cl2RhS4(1+) | MND = 6
Rh       -0.13701095254849    5.00859538436273    3.92458896985324
Cl        0.62515553312137    6.61624945743543    5.39664409171000
S         0.50578374194686    3.29446759475978    5.42795496453191
C        -0.57286728179361    3.79562842471303    6.81791845461111
C        -2.00057193273845    3.84219815352346    6.30580105967208
S        -2.15482831465724    5.19316599447398    5.06586771011493
C        -3.56999729273243    4.68022296230666    4.03460139662079
C        -3.40901332222978    3.50206665368302    3.08213754409397
C         2.19044310549050    3.75789318323828    5.94160140442665
H        -0.46652034785272    3.05438061415113    7.61042684981332
H        -0.24355485420201    4.77765802343005    7.16132498129996
H        -2.68904524952943    4.07894359260388    7.11744459809653
H        -2.28482091455940    2.89764240140671    5.84203093057401
H        -4.37945442053098    4.48804885031260    4.73879988476020
H        -3.80232926768213    5.58625123783574    3.47291874641447
H        -4.40354913399162    3.29183648462076    2.68159508197723
H        -3.08458676348205    2.60780042153949    3.62181396796102
H         2.17743576191277    4.80772702626774    6.23778898528862
H         2.44792464421197    3.12253226250355    6.78804711965700
Cl       -0.89932150683741    6.61623026869508    2.45259211001222
S        -0.77990344339790    3.29448662640022    2.42124643873122
S         1.88074020560089    5.19315764873984    2.78329581725857
C        -2.46455726368632    3.75793035567595    1.90759753912435
C         3.13489907122309    3.50206143412508    4.76705483402317
C         0.29877399994203    3.79560323495237    1.03128637867858
C         1.72647883155935    3.84216098672646    1.54340240893064
C         3.29587589073355    4.68023770930129    3.81461547508559
H        -2.45154594233240    4.80777377421729    1.61144438548604
H        -2.72203628132640    3.12259591032302    1.06113093073204
H         4.12943529385459    3.29182833402377    5.16759484653168
H         2.81048094021120    2.60780860341185    4.22735223992289
H         0.19242187418273    3.05433495314093    0.23879850223609
H        -0.03052317193970    4.77762726331853    0.68785046848661
H         2.41496463192880    4.07887448474459    0.73176059597456
H         2.01070201440850    2.89761570282663    2.00720898763155
H         4.10536156229324    4.48809960685734    3.11044070277512
H         3.52816055542900    5.58626437935142    4.37632059690171

