53
CSD_code = KAVZAJ | q = 0 | S = 0 | Stoichiometry = C26H21ClNO2PPt | MND = 4
Pt        0.69909188685607    8.71100480512999    5.98837237007400
P         1.93599624971779    6.92843678914050    5.48858883617220
Cl        1.44657337169775    8.77955941254981    8.11475864391563
N         0.04024398816048    8.60467108767874    4.07298908273574
O        -4.78498868620935   12.30072271391571    3.67938718801338
O        -0.46472213653719   10.32581890668550    6.39702248488528
C         1.59578753155983    5.29257494375525    6.18380528899731
C         1.01069614464920    4.25785301818741    5.46343627333074
C         0.75289417640051    3.05038342837819    6.08979920924337
C         1.06506908727782    2.87844668773547    7.42830253966193
C         1.62957567456821    3.91819990848371    8.15259059254479
C         1.89221934058481    5.12637041737539    7.53631077359014
C         3.73158064288921    7.12582077580567    5.62122291388436
C         4.61756230369561    6.05802059236796    5.70079800806202
C         5.97743984178743    6.30441265897154    5.76987063300789
C         6.45191482310265    7.60618125986967    5.76018549784373
C         5.56803728839067    8.67186991480983    5.68664824942835
C         4.20897209912567    8.43301627643294    5.61792376044725
C         1.64780263145497    6.83782167348418    3.69967129525909
C         2.35153547811847    5.98732436461629    2.86112582470467
C         2.15054873427908    6.03199588247698    1.49322578401223
C         1.26265309237336    6.95903094529288    0.97123937536883
C         0.56141601949734    7.81681621964061    1.79741880289551
C         0.71673057825169    7.76101437888444    3.18671359520873
C        -1.05700140855783    9.21645838480902    3.69823502272080
C        -1.78163237788314   10.21038492797910    4.38087705481351
C        -2.92901702167202   10.72639384694351    3.71709731481062
C        -3.67099344176143   11.74514940654975    4.24485385447009
C        -5.24256081655601   11.77245377738776    2.46136861945436
C        -3.28055803121645   12.30829139197593    5.48251835497843
C        -2.19909920814163   11.83272886099997    6.15271855847262
C        -1.41446286059351   10.74591008707965    5.66087060117688
H         0.75908362245392    4.39724940794574    4.42121041305983
H         0.30292993990598    2.24245673021592    5.53144796810217
H         0.85934687908311    1.93439264663634    7.91083987635877
H         1.85768766691202    3.78654405971834    9.19958614122933
H         2.30921389569200    5.95922043137184    8.08711224767066
H         4.24366214655604    5.04354392791690    5.72357157107600
H         6.66976325210505    5.47792543617047    5.83644609687647
H         7.51429959786535    7.79064999851614    5.81957102131909
H         5.94057696576901    9.68512411543845    5.69214508906505
H         3.49275662900601    9.24994423267543    5.58533988405786
H         3.06678822731293    5.29948473729507    3.28980638723387
H         2.69670322060538    5.37065863202133    0.83859925909124
H         1.12269373633103    7.02659233990730   -0.09740277111613
H        -0.08361963634736    8.55468028875092    1.34540918427358
H        -1.47925914506444    8.94234359909622    2.73147037113624
H        -3.18829178477770   10.28542469759344    2.76610737259649
H        -4.50025988144789   11.89453577013578    1.66492973172431
H        -6.13636296372529   12.34043271619179    2.20858034058908
H        -5.50211461257187   10.71234072490706    2.55519747597651
H        -3.87221566631525   13.12036528242462    5.87548890641459
H        -1.90298708472053   12.24825247971103    7.10359702907221

