111
CSD_code = KAWCOB | q = 0 | S = 0 | Stoichiometry = C32H67N6NiP3Si2 | MND = 4
Ni       10.36836780434741    3.57143638179233    3.87179611966087
P        11.53572732050561    5.25323955456899    4.46410324739531
P         8.27496342502804    3.30001698737910    3.40513278598270
P        11.26453990985057    1.61091332680673    3.88830681117101
Si       13.13453151731983    7.11223244278377    5.26164568019913
Si        6.97465810003625    1.31958175968162    2.41882555279347
N        10.07658242430172    5.45775900240281    3.75375660668786
N         7.33139116143864    4.58146901972470    3.46286759141444
N        11.79218793759661    6.17808446365313    5.88874319727959
N        12.69682694911208    6.31632964850513    3.77400344121109
N         7.36342765502134    1.95931765946201    3.99317253151364
N         8.11726597847487    2.51191973426733    1.87613597752498
C         9.01761819518891    6.28249808883183    4.00602308992550
C         9.24368908588647    7.58498955336837    4.44789288800396
H        10.27006390071968    7.88857358079707    4.58895620763858
C         8.20662228416781    8.47476421985130    4.64121555018672
H         8.41743133983573    9.48969222274595    4.94789738317086
C         6.89923001867577    8.05807333079034    4.43527460897838
H         6.07895299653069    8.74605667049345    4.58511778429634
C         6.64525395465628    6.76078224054004    4.04704875052629
H         5.63057737014830    6.42177537771566    3.89412652977704
C         7.67662830432280    5.84225406081927    3.81524717126113
C        12.91287830940868    8.99993420070449    5.34274954988920
H        13.79487897210605    9.49341126430357    4.94831827567257
H        12.78828730894607    9.32947236751235    6.36864498498638
H        12.05514784488287    9.34820839277081    4.77706132845158
C        14.86831230271156    6.65986222656024    5.92166407280222
H        15.08981409480104    5.60149363969693    5.82139754370860
H        14.96160208325708    6.92497528854552    6.96996736215883
H        15.63136621685398    7.21392773581331    5.38542988344026
C         5.19086736311686    1.46791665503818    1.75796538599522
H         4.80371201899500    2.47641107833294    1.85879986131513
H         4.52723703712975    0.79341529570540    2.28963252476257
H         5.15103493977044    1.19129872415126    0.70895654654339
C         7.53293265172604   -0.49635997310008    2.20747960704267
H         7.86431284842198   -0.68907275170705    1.19334537871003
H         6.69444868206697   -1.15618103134150    2.39978329609902
H         8.33471066751510   -0.77635794020857    2.88161637004181
C        11.41792416674362    5.73411594943694    7.21147148664103
C        11.48962979365327    6.92662438606336    8.16624780809727
H        12.50931012975731    7.30083711097203    8.22108366971637
H        11.16606846187023    6.63422176015056    9.16216432253288
H        10.84501197387273    7.72323653877693    7.80457265493076
C         9.98568439427620    5.20016285847124    7.14769324476080
H         9.30865597850853    5.98311996611738    6.81259047823095
H         9.65855668082352    4.83398623840818    8.11819657056985
H         9.93440464557033    4.37833896275832    6.42619542419897
C        12.35565463863811    4.61743689386079    7.68854113298423
H        12.34297083344015    3.80763212785013    6.95975323832705
H        12.03701524620846    4.22937415067875    8.65344765608904
H        13.37272718805073    4.99062357809297    7.77408380620495
C        13.14404403831388    6.34401921370312    2.40098312811842
C        12.07824519058162    7.02943012153210    1.53744684027674
H        11.13497419052724    6.50070093115065    1.64046978714704
H        12.37265316391794    7.03784521108506    0.49046706531036
H        11.93494986077185    8.05321936722192    1.87400422800299
C        13.35607138593338    4.90579472629301    1.92083487602859
H        14.16366149600583    4.44215370428955    2.48479098134155
H        13.59906707575996    4.87788794657000    0.86137360207661
H        12.43838548802323    4.33864847146835    2.09210816104773
C        14.45848797160141    7.12020580502036    2.31081402776242
H        14.31552120685244    8.13637163250592    2.66807847414328
H        14.80138267522899    7.15552837327921    1.27954672025996
H        15.22119866295030    6.64169709972056    2.91941340459368
C         6.65267208884136    1.92167319063634    5.25133299722730
C         5.27494561400021    2.58219579144683    5.11879242961217
H         5.40228309932809    3.56430185704144    4.67287342384779
H         4.80738054615122    2.68669824964287    6.09548601037557
H         4.63045964739335    1.98569788880580    4.47996285188748
C         6.47981154341703    0.46139906792859    5.68509006562058
H         5.96479087564975   -0.09468047627632    4.90578767772529
H         5.89740166772226    0.40699327987089    6.60179334208395
H         7.44666173219643   -0.00478969111486    5.85749277503245
C         7.46881595185832    2.68968397811096    6.28953698294617
H         8.49485234971092    2.33133988635189    6.28183360216851
H         7.05200333011333    2.56167509881819    7.28627986017900
H         7.46606711094436    3.74788524810639    6.03792193809135
C         8.40619139536403    3.11310101562251    0.59689188198921
C         9.60389425147976    4.04646210391438    0.78025822722485
H         9.26925382631586    4.97390247172012    1.24076313876830
H        10.08717625114490    4.27287155924834   -0.16794757314987
H        10.32838694994086    3.57020906809659    1.45664899165150
C         8.72977212821529    2.01173426384402   -0.41788851584247
H         9.61057104983655    1.45730067056731   -0.10907016820652
H         8.91107065543948    2.44497991434563   -1.39881722608689
H         7.89239473065695    1.32184274296099   -0.48884566061703
C         7.20776558823602    3.93151263076480    0.09698550598469
H         6.38306372559996    3.27328924650517   -0.16105913108957
H         7.48329019813572    4.51556227129028   -0.77856695410683
H         6.88433558442851    4.60242830489593    0.88849934935824
C        13.07247590637303    1.57875815053906    4.31299414972258
H        13.57620376199822    2.17983900036736    3.55089970400459
H        13.17889013071460    2.12073142306529    5.25736060471951
C        13.73173031945565    0.20975267915230    4.42044193779207
H        13.28195138470836   -0.38617896022468    5.21012997889364
H        14.78936937754773    0.32842557796591    4.65206822323435
H        13.65305073293626   -0.34304512745195    3.48825108071075
C        11.18427592358122    0.55236784679573    2.37218681132863
H        11.40583389865283   -0.48346260912991    2.64186430432867
H        10.14440358780289    0.60480326340677    2.03947872365022
C        12.10902910369637    1.01342514357587    1.25137817518548
H        11.93252415608967    2.05897989810597    1.00994538773846
H        11.93439519528085    0.42187288097875    0.35371774082331
H        13.15513785152837    0.90174739683107    1.52717869375694
C        10.54590334969677    0.42788479523602    5.11276713144303
H         9.47034989574323    0.43008963301306    4.91396389217056
H        10.92467647974527   -0.58199119654689    4.93745434323195
C        10.81550980459449    0.86384646815541    6.54906521518860
H        11.85120843661323    0.68249195359396    6.82887305700123
H        10.17717041928588    0.32194220226028    7.24491349433031
H        10.61836087907939    1.93012232191772    6.66305726045499

