38
CSD_code = KAWDER | q = 0 | S = 0 | Stoichiometry = C10H17N2O8V | MND = 7
V         4.94070171708328    6.95990946539119    5.18107969262047
O         3.38640334194790    6.59900963780477    5.59086627300702
O         1.45700134556228    5.62455609337451    5.10716808732101
O         5.95064556342196    6.83428657955228    6.89235531033005
O         7.26636278481879    5.74627589618638    8.29941225145562
O         6.39456318983762    7.29722505988619    4.38402484217573
O         8.42282021885433    6.75894174040089    3.63099685871382
O         3.94606534557332    7.25374169825759    3.09030335033386
O         4.89471567183269    9.04154298851754    5.95742377585059
N         4.31009042930413    4.60150008261994    6.91521255903133
N         5.41643984037198    5.01456701158331    4.19230453192714
C         4.94079072068069    3.53411064103786    6.18351157375204
C         4.84543240247278    3.74791153576768    4.66680622295985
C         2.88197979362072    4.67094202542831    6.82937689307991
C         2.48594974429179    5.70994505050751    5.74582941728637
C         4.98012062064738    5.02287629598168    8.11869486193322
C         6.19807613606309    5.92112659342209    7.74700374350681
C         6.87340536509847    5.02876587845199    4.30671859721520
C         7.32961294133228    6.49023653730671    4.06448507407192
C         5.05991773721476    5.19531955128108    2.77114969571320
C         3.74214595979977    5.94164460508990    2.59766273357161
H         5.98557692781818    3.47834640139818    6.49410921263456
H         4.47177640666678    2.55702350509615    6.40377877293491
H         3.78863696131410    3.73256605295289    4.38316746708245
H         5.35075289236733    2.90725186315773    4.16606676738782
H         2.42317466987938    3.70888039263327    6.56654360828681
H         2.44111853612693    5.01648831405162    7.76926260449661
H         4.30731831277850    5.63967412230660    8.71838212988557
H         5.33234513881271    4.18151368282706    8.73248050215718
H         7.36407415152402    4.33995365424342    3.60632186699331
H         7.17888562971986    4.79336802319736    5.32873244048476
H         5.82955180439598    5.81178313377484    2.29736171865241
H         5.02006862052806    4.22542487183156    2.25743664284051
H         3.49135394001290    5.98661168920048    1.52682825344331
H         2.92380279451796    5.44250007339097    3.13127316466552
H         3.08664927685702    7.66107633213842    3.26160346336886
H         5.54308449196307    9.41556855090490    5.34529205325892
H         5.39438857488672    8.78893436904430    6.75297298556915

