65
CSD_code = KAWGOF | q = 0 | S = 0 | Stoichiometry = C25H32N2O5Pd | MND = 4
Pd        4.92618424866582    8.40186704502000    6.31213773872455
N         5.12312933620526   11.32811692068130    6.01477377377275
N         3.24176384030473   10.57320560893448    5.28103760840965
O         3.08798256840952    8.20017969201884    7.24679900374400
O         4.22847346507622    7.29376077602963    8.90056881997619
O         6.62100779121295    8.67309841724428    5.14274980439269
O         7.57182184431367    8.08493404212738    7.03741767221034
O         5.52653408426443    6.31089359679304    6.77941366395625
H         5.09806304697288    6.37592782676574    7.66453606110179
H         6.44716468550183    6.58148271372522    6.97089524545619
C         6.70809396566179   10.96767112762840    7.84200265867863
C         8.01130980251381   11.06759965432012    8.31439977806414
H         8.22198844119005   10.73984953344816    9.32119917320287
C         9.04042668047468   11.54780812442066    7.52408232205767
C         8.75575733436292   11.92090353538809    6.21638060263394
H         9.55711264142994   12.26609378524375    5.57859605849814
C         7.47368412701876   11.83688529537442    5.70206360537467
C         6.44606381130368   11.38308132460785    6.53525544046652
C         5.65143766276439   10.39123318355311    8.73302232824522
H         4.65759248063587   10.77584584687467    8.49925055807937
H         5.87676154852111   10.60886686323841    9.77482470839828
H         5.64924848962007    9.29202639645823    8.62109954011774
C        10.44326822220170   11.63081062492379    8.04258074098156
H        10.46596735052838   11.51876922927690    9.12307122637591
H        10.89777446674628   12.58291468384717    7.77479861878146
H        11.04879292551400   10.83743606607526    7.60494549964678
C         7.21431431478775   12.16142577508896    4.26044598180614
H         8.15464149074727   12.23685158278005    3.72033162158272
H         6.68463581125992   13.10626517958187    4.14612962662257
H         6.61457601592828   11.37338922462213    3.80677655291294
C         4.41427081419313   12.40593216006540    5.54406104806962
H         4.79150639272344   13.40615244302954    5.59443241680813
C         3.23241212338597   11.93248450061194    5.08719591611118
H         2.40954966260300   12.44082114406873    4.62929875994550
C         4.40195781217749   10.20503442713345    5.85437734164141
C         2.30230735161240    8.63742617678083    4.11392063472221
C         1.20273736326220    7.82849896048407    3.86526445826462
H         1.30726607846409    7.00325183053307    3.17561246056273
C        -0.01888220017119    8.03763129226344    4.48754860743411
C        -0.12876900163836    9.08028109031657    5.39392837174555
H        -1.06441471375580    9.23993094489928    5.91055397786676
C         0.94256513747899    9.91467787756616    5.67311147143565
C         2.15203059921549    9.70132280628557    5.00813160706607
C         3.60566097691259    8.32850787038755    3.43783467909236
H         4.20359937559673    9.22478365766411    3.27107124538546
H         3.42691620676698    7.83947575233592    2.48241566650534
H         4.19104873758929    7.63379456316438    4.06990999838575
C        -1.17950808040015    7.13779254355633    4.19162931992215
H        -2.05657242690913    7.42954581088928    4.76314801363581
H        -0.92969740920156    6.10726076647237    4.43907063314811
H        -1.42643771095072    7.17397064149573    3.13136935252050
C         0.79932921469998   10.99117784181941    6.70803857427398
H         1.69691635903913   11.05096745723462    7.32053918530086
H        -0.04718307010518   10.77400958479886    7.35444505196808
H         0.62891928849151   11.96543344914747    6.25028363327314
C         3.16717484735613    7.68773777095908    8.39934246873977
C         1.85813966561449    7.56309626797371    9.16488188352229
H         2.05660524020086    7.26850929159883   10.19076451812383
H         1.24170920809963    6.81027191863627    8.67863340684163
H         1.32636043190671    8.51035487977106    9.13558718103432
C         7.64151790365795    8.44274604921041    5.85520161016828
C         8.99337329113025    8.59219042948027    5.17582515446136
H         9.74796328502893    8.83497572874136    5.91730232405725
H         8.94442966355357    9.36039378649762    4.41050057830579
H         9.24942508822177    7.64376460802265    4.70708241535658

