65
CSD_code = KAWHIC | q = 0 | S = 0 | Stoichiometry = C33H25ClIrN5 | MND = 6
Ir        0.15888451433577    3.06866910726324    3.37179139606225
Cl        1.01260363724788    3.26365862128990    5.64819528384639
N         2.09266438043004    3.05136550525277    2.69073810528643
C         2.68555694829714    1.85308971992689    2.79139606759650
N         4.00096479936343    1.92665663412465    2.44814705771753
C         4.26248558163223    3.23310402584150    2.11183888468040
C         3.04484919718989    3.93365676112666    2.26799901726033
C         2.97591423385274    5.29550355818946    1.99199607027113
H         2.04942417923409    5.83290726959986    2.10838247579715
C         4.12768404240526    5.92469396720960    1.57157192357523
H         4.10679270724054    6.98154565603498    1.35213347588407
C         5.32797983510083    5.22755747956604    1.42199185578134
H         6.20732648389026    5.75914385524713    1.09088365184013
C         5.41632903969580    3.87605878707211    1.68716507541567
H         6.35176757310647    3.35086711931371    1.56572150821866
C         0.58328117077194    1.17586725915472    3.54166562579229
C         1.88629484678198    0.73916728800612    3.24591167350809
C         2.21287652040244   -0.59858119861719    3.46100210433347
H         3.19368990048962   -0.99113959393929    3.24247519708423
C         1.25278851032951   -1.45525835209928    3.98019602744023
H         1.51170002657994   -2.49209258496227    4.14018402186372
C        -0.01782997916343   -1.02143068484721    4.33019311108742
H        -0.70677118516928   -1.73028906435441    4.76236065553938
C        -0.36237339916706    0.31294526184770    4.12239437778485
N        -1.60224138898111    2.35201585885492    4.13688350708779
C        -1.56149858291304    1.04876998600541    4.44917112185069
N        -2.70916401776410    0.65694387055172    5.06796254809777
C        -3.52207739442010    1.76132220691231    5.15730062549288
C        -2.80931695526907    2.82694781883359    4.56221519006256
C        -3.37291669652317    4.09667906445439    4.48779738835152
H        -2.83218235854829    4.91072721193525    4.03402988532585
C        -4.63397512128211    4.27115063061909    5.01555870468164
H        -5.09721883518426    5.24552092720998    4.97641797841423
C        -5.33191777724101    3.21503130564951    5.60439793418109
H        -6.31738962253648    3.39522112436641    6.00670628021807
C        -4.79191655353798    1.94744141062015    5.68448770063300
H        -5.34484753184583    1.14105427539892    6.14232986373758
C         4.95962069906732    0.85821141955637    2.46681962720433
H         5.03300757489055    0.43009879469996    3.46832017480471
H         5.93292378264304    1.25296449281592    2.18353311528128
H         4.67776880654546    0.07618968042543    1.75838794708174
C        -3.01514918954721   -0.65169027915269    5.57284289566334
H        -3.99123458798066   -0.62503236989610    6.05239462763071
H        -2.27087464265989   -0.95917595823135    6.30983165371744
H        -3.04264147553353   -1.38068101129647    4.75997552649234
N        -0.29023302865888    5.13243950811643    3.19981582275781
C        -0.80906502215857    5.50407049290846    2.01078116167917
C        -1.12838128057437    6.84149692851766    1.76990195363735
H        -1.54060100984797    7.13894096052916    0.81920797694859
C        -0.91212578456882    7.78628796564055    2.75491979789906
H        -1.15440996233904    8.82425778908188    2.57813516494636
C        -0.37914677478083    7.38110386917355    3.97094904581765
H        -0.19533195097134    8.08628568089387    4.76553863109720
C        -0.08440100527766    6.04092724455214    4.14464096588556
H         0.33343620941613    5.66743797451630    5.07058530483845
C        -0.58543383169550    3.12940252139818    1.49320361135462
C        -0.98508572227475    4.41222673984227    1.05857386654862
C        -1.51646952396664    4.59647172673106   -0.21848639866469
H        -1.82278172235210    5.57842885550494   -0.54902015362082
C        -1.65799668082974    3.52559267780350   -1.07598083755133
H        -2.06988079408650    3.67355539170476   -2.06397107788300
C        -1.26938674483020    2.26039146532983   -0.66353734445156
H        -1.37915998127598    1.41881199478850   -1.33362606051818
C        -0.74231284192904    2.07217135945702    0.60271138130193
H        -0.44637424325029    1.07622199594196    0.90345824829712

