54
CSD_code = KAWJEY | q = 0 | S = 0 | Stoichiometry = C18H23CoN12 | MND = 6
Co        1.97500573415635   13.38764421496180    4.55376893391666
N         0.54248905407830   13.73478055867298    3.37906636427672
N         2.43175026333486   12.11781973506637    3.34419650869429
N         3.67689270702730   12.63513282763942    5.67702014682137
N         1.55619274745332   14.59256409409851    5.87534756732465
N         0.59062437861079   14.98345149751409    6.40949481585940
N        -0.26390305029091   15.45541629817256    6.98834792264048
N         3.02647564501711   14.67998759121923    3.68295963870715
N         2.84599161994825   15.24690746821736    2.67488166566715
N         2.78741807516553   15.83305422338676    1.70315321403945
N         0.89414453226573   12.08573080967802    5.44171568738135
N         0.11735563594878   11.36326716979614    4.95008027662449
N        -0.63109690414419   10.61348619402133    4.53600342184461
C         0.48179514355060   12.81671259991128    2.38155435272964
C        -0.51448719465654   12.85539271820650    1.40661411957119
H        -0.51885998834079   12.10578007033893    0.63137385869579
C        -1.46387071459173   13.85368818824928    1.45585285553057
H        -2.24860837221673   13.90352589399237    0.71744181586877
C        -1.38152811103436   14.80058329035240    2.47049545732910
H        -2.09512783955853   15.60437348333092    2.54407593985190
C        -0.36541655869990   14.70715842942915    3.40284872144839
H        -0.28846410664392   15.43880759629313    4.19381242527127
C         1.61940724937344   10.72714206272111    1.47664972526379
C         2.67228779196060   10.58678039065630    0.57717814241899
H         3.45600929740349   11.32983695546728    0.54920179439809
C         2.69450062558356    9.51553163762426   -0.29766457620502
H         3.50828521215446    9.41542633774823   -1.00003756560063
C         1.67733014537102    8.57567985251451   -0.27215886846880
H         1.69969536715369    7.73911963742774   -0.95417436469959
C         0.63283155319033    8.70803839632812    0.62899143678496
H        -0.15699613020579    7.97280261629145    0.65483878152475
C         0.59547614954637    9.78171844241496    1.49962322071835
H        -0.20280816819376    9.88095852878937    2.22190124408357
C         1.56606698911749   11.86228559398314    2.41210304432028
C         3.60537344311107   11.32450611810725    3.57875096007013
H         4.45383238996635   11.80775943492857    3.08030113656621
H         3.49869976181562   10.30867638676996    3.17839434653209
C         3.82960074489535   11.29061251501817    5.09210752420158
H         3.06952201366244   10.64218567209948    5.53414319517001
H         4.82041830161828   10.87146614671875    5.30804015297474
C         4.92654387894476   13.39636757980222    5.47186118760198
H         5.05183617250929   13.54035618278410    4.39832184909756
H         5.77466549337792   12.80095625919693    5.83723170383555
C         4.94005872924620   14.76777854440963    6.13147104686207
H         5.77571652310561   15.33966331227882    5.73597210809647
H         5.05385057013963   14.70344633603158    7.20982204688094
H         4.02026722811078   15.29424136537031    5.89702162324295
C         3.35311595024354   12.52335824787289    7.11400277188186
H         2.40974867101787   11.98040537093608    7.19261610025443
H         3.17557910296480   13.53113784084523    7.48597074152542
C         4.40245986572214   11.83122507779576    7.98183885346339
H         4.02819190933662   11.79467284378377    9.00165086546439
H         5.34480375916708   12.37204045949720    7.99374513440348
H         4.58705671221298   10.80965890123697    7.65857892724132

