49
CSD_code = KAWKOK | q = 0 | S = 0 | Stoichiometry = C23H19IrN4O2 | MND = 6
Ir        0.61301712634827    5.06086459827088    3.98546864712970
O         0.69230830873636    2.56992637299663    7.36821171374856
O        -0.02225145004249    3.85822998844993    5.69980219112481
N         0.44658926434863    6.79121007560739    4.95673803597120
N         0.65758872293607    3.30736089912583    3.00510773424911
N         2.54367012119203    4.70550027836029    5.29267647693563
H         3.39014495323650    4.54499585736381    4.74661911529662
H         2.72346912799173    5.50673259423607    5.90802722330815
N         2.22901158401472    3.53056765135783    6.03021996227220
H         2.86115319660605    3.30716209578001    6.79409043747308
C        -0.14554574130837    6.90609327739071    6.14353012095814
H        -0.55264377339816    5.99425390864860    6.56019620608987
C        -0.24349930596284    8.11020714338446    6.81443401955552
H        -0.73043901597869    8.15601927047712    7.77492913402231
C         0.29282812100073    9.24712777540430    6.22338666348118
H         0.23336199279149   10.20454256458194    6.71858773723506
C         0.89761315780585    9.13411577286310    4.98601538521253
H         1.31252560221482   10.00342587869804    4.50234114707847
C         0.96481982165396    7.89145718669211    4.35791402509111
C         1.54446835082419    7.62558865714466    3.04916771833023
C         2.16907761926845    8.58968145761909    2.25894208615799
H         2.26532698201677    9.60757142187967    2.60749519721253
C         2.67289983667637    8.24488024720088    1.02170608450952
H         3.15677229608226    8.98971996410416    0.40722468349442
C         2.55163338413190    6.93955608979530    0.56861984140110
H         2.94045394011477    6.67217904311090   -0.40378085931112
C         1.93462550513937    5.97902568769015    1.35272290029975
H         1.84760201625832    4.97079640827428    0.97110815867686
C         1.42006086856070    6.28693951151872    2.60864282951843
C         1.62539126287596    2.40026255340819    3.10846300641386
H         2.52108938652567    2.69767776210812    3.63265411588498
C         1.52632027187991    1.12180920509539    2.59524505635475
H         2.34062597646916    0.42595324524404    2.71701994251539
C         0.35902302606455    0.75814025090799    1.93832925600487
H         0.23943218945994   -0.23567853931940    1.53444483761243
C        -0.64734785877451    1.69480789431838    1.81693447048665
H        -1.56751419632621    1.44035219984951    1.31715858198591
C        -0.48330304638330    2.96988976864741    2.35718062664988
C        -1.47223990927246    4.03483196445339    2.29430151481354
C        -2.68626104384522    3.94196262600948    1.61402794868395
H        -2.95302021251659    3.03733693012526    1.08834740201820
C        -3.55854681352021    5.01057226373317    1.60903411154543
H        -4.49935248688101    4.93915622716044    1.08360884308098
C        -3.22366452795436    6.17645646714100    2.28054496333623
H        -3.90621727204556    7.01429577501251    2.27481972724883
C        -2.01989786958827    6.27512603489359    2.95868803983192
H        -1.78640695829209    7.19986962261838    3.46762758349925
C        -1.12267158396687    5.21413068599979    2.98316622357883
C         0.84481905283165    3.30101538456479    6.41065913192800

