53
CSD_code = KAWKUQ | q = 1 | S = 0 | Stoichiometry = C22H24IrN6(1+) | MND = 6
Ir        2.03031452220066    3.39238654942653    5.55527506895009
N         2.75118240905254    1.61428887887798    6.16299869443830
N         1.15981353083401    5.12858200569190    4.94265150208760
N         3.68838153239369    3.92958070687353    3.88282040183433
H         3.30670584898170    4.69337874787499    3.31481905012812
H         4.55255378480480    4.27579489237575    4.29872807047529
N         4.04684049726525    2.79285282876456    3.08232663572909
H         3.19387597540526    2.31276746223977    2.80656026173076
H         4.55292478462828    3.06220321342591    2.23885855439863
N         3.49609527388918    4.23401685291091    7.25178793577387
H         4.43826613137865    4.14254286759407    6.87175642596260
H         3.35783069771785    5.22668061765629    7.46872151937049
N         3.46475163431699    3.42113787373974    8.43420148788261
H         2.50310166756054    3.33714204709841    8.75113215915219
H         4.02181944248322    3.82335663958159    9.18737673334944
C         0.59000261982693    2.89394618862964    6.87662489004048
C        -0.54346365835999    3.61535867575921    7.21927004437725
H        -0.77894924593566    4.54255847683133    6.71659411278803
C        -1.40436629568304    3.15960093985945    8.20780091153441
H        -2.28217593898331    3.73555338454276    8.45915704698574
C        -1.14598779244586    1.96942015990396    8.86788643136767
H        -1.82056654543648    1.61827562448014    9.63314644151984
C        -0.02606237193666    1.23013983014872    8.54176212904196
H         0.16694600962609    0.30343490493484    9.05908850712391
C         0.84422499764937    1.68268495710318    7.55079329286684
C         2.05601266313324    0.98611663270885    7.13800781423618
C         2.50531752008836   -0.22079431050339    7.66971169544868
H         1.93959683908117   -0.71063957766103    8.44436262647777
C         3.67526063145239   -0.78574772630798    7.20090850116795
H         4.03445314757869   -1.71951052107008    7.60434848331044
C         4.37428644401158   -0.13078193742409    6.19701744960252
H         5.28806924150340   -0.53686546674571    5.79542854400998
C         3.87368769865436    1.06203311474027    5.70988741782754
H         4.37986893366943    1.57863627659634    4.90574626687469
C         0.85818137549933    2.66793212645779    4.09057867933953
C         0.74713120273226    1.35204509784519    3.66264488123555
H         1.25492148497270    0.55982297895792    4.19369249967110
C        -0.02109190579962    1.02662333984182    2.55426219973424
H        -0.09612372447002   -0.00311267352877    2.23907245315352
C        -0.69299990749202    2.01485111700726    1.85168731491942
H        -1.28763334525188    1.75646070288121    0.98942875199827
C        -0.60532308918491    3.33026412773732    2.26008611398816
H        -1.13188566765171    4.09230775338720    1.70683298357247
C         0.16308270431873    3.66458437854791    3.37624298165974
C         0.30948857912718    5.01783577899495    3.89168220419209
C        -0.35854501789965    6.13606822724896    3.39143975532819
H        -1.03431447240011    6.02757428852464    2.55984652002452
C        -0.16313213167826    7.37456662175112    3.96856192536876
H        -0.67782009321957    8.24493068128373    3.59365675249131
C         0.70536721984715    7.47447757503371    5.04828824249565
H         0.88546748906246    8.41819756105095    5.53610606634637
C         1.33484148373342    6.32969281765265    5.49387345748467
H         2.00597518534874    6.38174568866475    6.33995910913118

