32
CSD_code = KAWLOL | q = 1 | S = 0 | Stoichiometry = C15H10N2O4Re(1+) | MND = 6
Re        7.92049814640686    2.09161479218285    0.72611781716235
C         7.74214963630192    0.17673622525593    1.09108647108751
C         6.76194893204109    6.21317692019377    1.29950532664961
O         8.52774285313911    2.54354829663921    3.01242066740159
C         6.89268993298615    4.81384502183444    1.18013250116280
C         7.81886449771111    7.00645253313668    0.82163491699583
H         7.75644179471244    8.08129497933284    0.89428170017085
C         3.83069394443866    2.30124123634229    2.43135458308164
H         3.07036062850794    1.59598770395568    2.72442360968868
N         7.97920548496286    4.22333289386291    0.63673533965427
N         5.99806903820478    2.62949086973942    1.48168411142085
C         8.91242644448448    6.39022203309938    0.26144045727289
H         9.74008506183495    6.96279032178677   -0.12393865196998
C         7.32841553447824    1.85186939134608   -1.11719588712448
C         9.79294887275903    1.82827313007503    0.22005480344108
O         7.61846449093444   -0.92469173094164    1.35420498229259
C         5.83367968789303    3.96176097245182    1.63203927971737
C         8.95178045250907    4.99614776489009    0.18738670238865
H         9.80278274000098    4.50007999558157   -0.26006252230392
C         4.67093054418446    4.53065802679544    2.19224966146609
C         3.65190742430430    3.65354563518113    2.60088611832020
H         2.74635550145771    4.04995773695683    3.03365567664129
C         5.01832553089503    1.83129693931421    1.86639387649712
H         5.16649884369392    0.76980443159742    1.71876741163877
O         6.94532370697561    1.76396903555726   -2.18600776601660
O        10.89751377978025    1.71690221872808   -0.03535208500514
C         4.57838649981301    5.94750573358016    2.31185298455591
H         3.68311488749131    6.36179666135294    2.74885111210291
C         5.58022369111608    6.75366051945170    1.88405929751350
H         5.50307874253987    7.82626676226735    1.97167786755969
H         9.45835071164425    2.75961760162247    3.14356685271273
H         8.31444196179710    1.83374534682949    3.62969278382363

