32
CSD_code = KAWLAX | q = 0 | S = 0 | Stoichiometry = C14H8NO8Re | MND = 6
Re        1.93813385002953    1.08271614601471    6.62708132580398
O         3.31918689474164    1.15937710908417    8.21124120501143
N         2.36629569835429   -1.03942998434373    7.02728430336671
C         1.77709632720850   -2.16775509209039    6.54676340065249
C         0.54198943575600   -2.07945115303826    5.87260031769642
H         0.07273294002425   -1.11014419690853    5.78188464375825
C        -0.06232338505448   -3.19712663368900    5.36747775838985
H        -1.01044382420633   -3.11113476159334    4.85957282017369
C         0.54064569291931   -4.45476963455340    5.50634607811286
H         0.05864267484143   -5.32685426040073    5.09211603512115
C         1.72669723261640   -4.58153653798854    6.17509969726564
H         2.17808575091094   -5.55065766092185    6.30937366457144
C         2.36735885420346   -3.45505649876837    6.72993089331666
C         3.58200998660806   -3.53240951469710    7.46655559317705
C         4.09528253433305   -2.37877661181263    8.00627043346888
H         4.99073482878774   -2.36368998374250    8.60823752885293
C         3.45360065833826   -1.15886101958228    7.76174867612046
C         4.02400776940150    0.12524393392341    8.39704420154919
O        -0.73487704863324    1.03060448783424    8.16564762689815
C         0.23637589780767    1.07146256092104    7.55985843765935
O         1.92821598290798    4.16503301335952    6.41670462190132
C         1.89392193379639    3.02533059941319    6.46405819977756
C         1.09531913656355    0.89769590416240    4.88524043754594
O         4.13081624224385    1.00543762806654    5.58106006657889
O         0.69969974079301    0.78516642596150    3.81270581205762
C         4.29367262669870   -4.81848418919172    7.71098474338840
O         3.78765832556384   -5.90973052716935    7.76247373248162
O         5.08129024801460    0.05675182936852    8.99825479039238
O         5.60343397713052   -4.62659251698695    7.89009351380262
H         6.04678341574416   -5.46919401059644    8.07840580474342
H         4.74269526922390    1.30252785853906    6.27056432021710
H         4.26926033233276    1.56150729142501    4.80731931615067

