40
CSD_code = KAWLIF | q = 0 | S = 0 | Stoichiometry = C19H13O7Re | MND = 6
Re        1.32852792404422    1.27529168129637    4.42711900445424
C         5.59852436465706    6.79774510795518    2.41450092023795
H         6.11119207534215    7.71135246098870    2.67665016784221
O         3.67999390340721    2.92530316843632    0.02592578767294
C         2.29173845146430    0.97721394192441    0.24235205178295
O         1.40329461919692    0.55804659128905    2.40031800954649
C         3.57310880369758    3.21623495376020    1.35152083531889
C         4.26781262769507    4.43560592601167    1.73674242416471
O         2.67330249236994    2.60370122686311    3.46475855506858
C         4.37740143590002    4.83558286187461    3.07270549784651
H         3.95328977583024    4.22225847361950    3.85071029799616
C         1.69236357036273   -0.12493580830139   -0.38988350572513
H         1.08734378133341   -0.78737619238483    0.21070242362236
C         3.27676431739776    1.62054986898770   -1.88097801830897
H         3.89348776623533    2.30509405892434   -2.44185638701519
O        -0.14424969464527    2.84576879007331    3.24322708824412
C         2.12668634427226    1.25276622871190    1.63943814988566
C         2.82704375601229    2.40225661094534    2.20018588971088
C         3.08915209901363    1.85435080452012   -0.51224425508749
C         2.68201088099027    0.53472082542165   -2.47386802100057
H         2.83014748782240    0.35445777922192   -3.52777216336039
C         1.88693407646094   -0.34271237886668   -1.72841373620097
H         1.43030428965048   -1.19165867290045   -2.21340777794609
C         5.03533723903041    6.00479639409562    3.40079016482116
H         5.11086081961094    6.29761923131536    4.43773105227953
C         4.84615623717243    5.24370415210980    0.74909317233649
H         4.77341864823139    4.94931870937068   -0.28655525905637
C         5.50210410248845    6.40868354201181    1.08741277853205
H         5.94135646479347    7.01934327010671    0.31183172086529
O        -1.10381035569783   -0.47831570213834    5.16546568204718
O         3.41487103800816   -0.71236977511827    5.51721792421733
O         1.19265825247316    2.98265509000467    6.99403285209377
C        -0.17375130917171    0.15980510350404    4.95035704917293
C         1.23970466897189    2.29362072743629    6.07778841959170
C         2.60489165181548    0.01833686171556    5.16617361306646
C        -0.09634090125193    4.22959811029044    3.54415930992943
H        -0.58063608192771    4.44740652130474    4.50040232668830
H        -0.57484606634048    4.80705993710144    2.74778143172294
H         0.95590189256314    4.50663204075411    3.60685660854693
H        -1.06435144927811    2.55508747775999    3.20492791439502

