43
CSD_code = KAWQEE | q = 0 | S = 0 | Stoichiometry = C22H12N2O6Ru | MND = 6
Ru       16.95499760598244    1.36765236225392    8.25281325057441
O        15.77780851540817    3.33523383686630   10.22040547232962
O        18.69352151046335    1.16223948388356    9.44443667900413
O        17.31730698834422   -0.67045991756089    6.34160119017022
N        17.82930490871434   -0.12168199552053    7.33154658583724
C        16.17093330528393    2.63383319800933    9.41785534191809
C        19.33991409941362    0.13611526114995    9.08548339153675
C        18.93053207414512   -0.60850566187142    7.93150572025054
C        19.64960362019306   -1.75935213855435    7.49467878074443
C        20.74616315400050   -2.16310832393380    8.17270446221776
C        21.20694467923224   -1.45760881224203    9.32944403122529
C        20.51642736463881   -0.31440882593995    9.79273712842680
C        20.96840768473298    0.36904523382650   10.92876510856103
C        22.08811191154202   -0.06338954821109   11.59855823758986
C        22.77764525734868   -1.18848244417373   11.14596257036524
C        22.34510908552716   -1.87321197625281   10.03361482494890
H        19.28245343635868   -2.27723669592035    6.62109266950174
H        21.29941972704879   -3.03398675945413    7.85502837324707
H        20.41288401387529    1.23397947888562   11.25784752910053
H        22.43580890345901    0.46319475236785   12.47427473433598
H        23.65709033005130   -1.52406842611582   11.67574532545466
H        22.88185877797890   -2.74537893225399    9.68941228914612
O        15.21739136811128    1.16474772698329    7.05994486603982
C        14.57216001409508    0.13646800133238    7.41479274136278
C        14.98038198072389   -0.61032894135269    8.56776543534370
N        16.08017980481103   -0.12367813712575    9.17052966251629
C        17.73901229442256    2.63619238478567    7.09035661915484
O        18.13254168761299    3.33807418354547    6.28847672089532
O        16.59098004944240   -0.67377845526396   10.16034283570828
C        14.26163575333019   -1.76286217248761    9.00069364001988
C        13.16719911870800   -2.16671665905834    8.31927524091849
C        12.70850831014250   -1.45989302014081    7.16251014450009
C        13.39838262481483   -0.31462958890637    6.70341030287820
C        12.94867413801656    0.37018899623263    5.56730632307078
C        11.83159919326273   -0.06276262525319    4.89348713351931
C        11.14263765054774   -1.18985522999765    5.34195913415750
C        11.57312680110482   -1.87606925765009    6.45419650774940
H        11.03668415716715   -2.74966069133302    6.79525043841315
H        10.26539374824730   -1.52597087013266    4.80887218288297
H        11.48578846658627    0.46470952001004    4.01755963024451
H        13.50374803295406    1.23666766512234    5.24154374857050
H        12.61453662989585   -3.03913565198445    8.63376471313713
H        14.62749122225974   -2.28222032656117    9.87394828243053

