62
CSD_code = KAWQII | q = 0 | S = 0 | Stoichiometry = C32H21N3O5Ru | MND = 6
Ru       -0.04563050308368    3.29793514769708    1.69331173480816
O         1.99956165698824    1.15972148753026    1.12075808720615
O         0.69523224547695    4.69879609304669    0.29443056818843
O         1.22805202611038    4.05194791312499    4.05677047675695
O        -0.82832573247001    2.16317249688218    3.28819414661583
O        -1.68538551650783    5.56796869256179    1.73193746097212
N         1.13942982937854    4.28975058879958    2.84565265872952
N        -1.40411743822418    4.51283227788018    2.33771632678163
N        -1.51918138001205    2.54958704839120    0.39573419805535
C         1.23486543337289    1.99796338531622    1.25100614611878
C         1.44185129644705    5.52878000376950    0.89076942426123
C         2.02432051854668    6.66593396764875    0.21455691772391
C         1.78407029308370    6.88608232743236   -1.14770341424255
C         2.33379109909152    7.97100478463998   -1.78637723938566
C         3.13808784810863    8.86197095526558   -1.07445759371367
C         3.38600134684232    8.66157922269944    0.26262937674370
C         2.83903355150506    7.56322189733353    0.94234190086155
C         3.08985383138414    7.34647919059821    2.33215384188597
C         2.55776872458879    6.28642832688895    2.98232318075981
C         1.73367612909566    5.36294199564546    2.28016717661702
C        -1.61955289171384    2.87556435103408    3.96814268461291
C        -2.20832752040376    2.41435455859582    5.20573431233124
C        -1.85322027107729    1.17113227009306    5.74263372630740
C        -2.40326775621009    0.74208198964545    6.92686353485876
C        -3.32133780545363    1.54927189091311    7.59900181328700
C        -3.67906441609623    2.77471852592902    7.08733340208450
C        -3.13366912279730    3.24066819338971    5.88278525036259
C        -3.49177710544191    4.51740919574280    5.34665029135872
C        -2.95100471706361    4.97023054531543    4.19339594085098
C        -2.00460107149325    4.17109508716988    3.49189184019058
C        -2.15569324219999    1.39111720643136    0.57681425185360
C        -3.21525033682804    0.99241362238656   -0.21302636211782
C        -3.65738995791743    1.81962761390761   -1.24780124796686
C        -2.98203911202813    3.02860254044859   -1.42071899156048
C        -1.92938922882893    3.35082715670395   -0.58726331238980
C        -4.77631833692094    1.43604146009238   -2.11459923904193
C        -4.93125642681933    0.11381696129869   -2.52760615271583
C        -5.97971605283141   -0.24292492798970   -3.35447121766241
C        -6.89325578180437    0.71081893420855   -3.77223364616807
C        -6.75151259947802    2.02612691201706   -3.36165939023676
C        -5.69874512761011    2.38920150551503   -2.54303784789693
H         2.73199410577933    6.10269521070693    4.03216627455929
H         3.71641845273445    8.05459877398387    2.85328789172635
H         4.00960996078526    9.35409280198233    0.80964213643036
H         3.56722220765639    9.71450505108467   -1.58064149471439
H         2.14606861074512    8.13872860349415   -2.83641028034776
H         1.15893604008983    6.18182574885942   -1.67580542311441
H        -3.19870005974758    5.93534874245263    3.77596924917233
H        -4.20280079654851    5.11767465388773    5.89461765898062
H        -4.38685495145754    3.39832186361916    7.61465926307144
H        -3.75003706301094    1.20869308359081    8.53038042976671
H        -2.12558361000859   -0.21530257431402    7.34160343847769
H        -1.13299759141029    0.57218281529253    5.20603896064977
H        -1.79702681260332    0.76935044001933    1.39029996052732
H        -3.70836189529034    0.05409857974965   -0.01311637957972
H        -3.26386790511427    3.70536663851725   -2.21172458937632
H        -1.39043328344181    4.28415615041359   -0.70170647167122
H        -4.21025938394687   -0.62988363692411   -2.22174419961395
H        -6.08415399136831   -1.26855456549902   -3.67572799750467
H        -7.71346810741512    0.42968193006471   -4.41539448386605
H        -7.46454227750204    2.77178390482924   -3.68057632866796
H        -5.60382802763273    3.41234238817905   -2.21066263098445

