66
CSD_code = KAWRIK | q = 1 | S = 0 | Stoichiometry = C25H38IrNP(1+) | MND = 6
Ir       -0.08320553618362    2.88688245138536    2.70742647250573
P         2.20720527584152    2.94799304211778    3.11327768082556
N        -0.15031625676098    2.41226270778561    4.96262037879991
C         1.41759720558992    1.70387199001249    6.89884132066056
H         0.90641935278907    2.30607174192598    7.65335493488852
H         1.10586340278986    0.66621285404209    7.04181884011886
C         1.16547261681142    2.18857331190359    5.49940134457185
C         2.32142494180892    2.49687281305746    4.86689101773303
C         3.43561382032841    2.30576992241490    5.79691019749195
C         4.80133424435394    2.52566846854323    5.68859785193574
H         5.24672134711309    2.90704022107289    4.78473826082213
C         5.61171995264549    2.25040732585768    6.77747729280839
H         6.67444388400986    2.42090054895365    6.70040215893370
C         5.08204498277894    1.76178655739057    7.96189837685983
H         5.73455563325288    1.55374164102856    8.79515199722565
C         3.71745361894986    1.54750819474070    8.08523838741539
H         3.29894618200847    1.17575661821238    9.00818869998318
C         2.90553984350224    1.83030493056626    7.00784635570726
C         0.11391653613352    3.15239495551024    0.58718115321880
H         1.14912940768636    3.04237077630249    0.27059664790337
C        -0.22550844726755    4.37486261808191    1.20168500510604
H         0.56819094108391    5.11328126206681    1.30998086862688
C        -1.59405161541362    5.00872193260551    1.16251799594682
H        -1.75654484546134    5.44237213765357    0.17177092970927
H        -1.60464790190147    5.83383945623700    1.87692407861913
C        -2.73159392098216    4.02951110937606    1.50493556275758
H        -3.12018689306647    3.56398072739491    0.59992410663119
H        -3.55065062876371    4.58997996753035    1.95646004129557
C        -2.28232810376988    2.95093507693757    2.46258915369743
H        -2.74687265167411    3.00774345834522    3.44275857309072
C        -1.79592678501865    1.72297146735190    2.05069882119362
H        -1.89343033051856    0.87844016265990    2.72984401894794
C        -1.61908175439790    1.30668752318304    0.61098661564013
H        -2.60416852678586    1.11137687289927    0.17763973993717
H        -1.07088722410966    0.36362315200473    0.59275022892631
C        -0.86431361080965    2.34404605692064   -0.23960807644570
H        -0.32066252479332    1.82038494265192   -1.02549089958748
H        -1.56223974646829    3.02255929401086   -0.72885830263449
C         2.99080658287159    1.49698892379402    2.23833801568464
H         2.92860757453102    1.74484932376448    1.17198927514900
C         2.10628176701452    0.28026745119264    2.50202492308600
H         1.06445999429994    0.50775272680721    2.26770919282030
H         2.17398790787987   -0.01962817579174    3.54657553880429
H         2.42217823501682   -0.55903629701467    1.88695518138229
C         4.44187886138952    1.20090186349991    2.59225522380634
H         5.08901507874354    2.05161083263629    2.39423164370998
H         4.79409066996091    0.36986903683495    1.98353247076909
H         4.53804974496459    0.91376737177584    3.63620174474209
C         3.38969673744526    4.37193365033061    2.93412220802101
H         4.33983576367778    4.07478497603025    3.38586109500270
C         3.63284009369666    4.73065709126786    1.47215879883111
H         4.06324836496227    3.89457856564979    0.92548956776761
H         4.32888391419212    5.56497457903046    1.41112970169619
H         2.71035282016191    5.02749767637450    0.97927781215131
C         2.82303921105531    5.55079539997988    3.72124851489003
H         2.72219116475902    5.29536188539540    4.77553239813220
H         1.84557672104633    5.83792180302804    3.33558819197071
H         3.48481662563770    6.41041532100619    3.64392045192086
C        -1.06151913154532    1.34557959618953    5.39476306825270
H        -2.05338423422896    1.51033160419645    4.97899206785821
H        -1.16013753295184    1.31534432795131    6.48384271827918
H        -0.68758626531703    0.38312510111977    5.04736931875585
C        -0.62808847519148    3.70516822077632    5.49484255839475
H        -1.61670917465557    3.93124389667865    5.10272737402266
H         0.05897281853326    4.49809587246655    5.20285688760316
H        -0.69276172327585    3.68313908429492    6.58749622462892

