83
CSD_code = KAWSEI | q = 0 | S = 0 | Stoichiometry = C36H38Cl2N6Pd | MND = 4
Pd       -0.00049741945195    7.32490718394521    4.38886310611678
Cl        1.13553605196356    5.71487138442149    3.19455985216351
N         0.08059920534893    9.29736280209601    2.20878852543442
N         2.08432660797684    8.84917002869166    2.83905905330926
N         6.29899504163813    7.03336639368520    0.92483174395961
C        -2.15431759912331    8.34145753243551    1.86566029905242
C        -3.52642458757160    8.54376610643773    1.79922611334513
H        -4.16469760984735    7.70756353063206    1.55454400509526
C        -4.09956953995781    9.78424618376072    2.04078616364232
C        -3.26626026408143   10.84710664617693    2.35690595763909
H        -3.69230484176970   11.82153073986649    2.54984636725576
C        -1.88846063623349   10.69300979902540    2.42612606598708
C        -1.33595786767192    9.43366348130583    2.17916181365025
C        -1.59726151989018    6.97869331014089    1.60839421186742
H        -1.46543150964937    6.43976935225569    2.56392629314540
H        -0.62649806816004    7.02157581658747    1.11513249126255
H        -2.28040220167217    6.39469734936764    0.99664398714128
C        -5.58454777890200    9.95863463880312    1.95460300461821
H        -6.09519608097346    9.16359193946342    2.49524588460842
H        -5.90561265991004    9.90940642460837    0.91457299888361
H        -5.89171561820143   10.91899999261043    2.36122142867240
C        -1.02968211753373   11.87998802829458    2.75012279163900
H        -0.09892546756372   11.58182473027875    3.22615177595420
H        -1.56178474000045   12.56087710461727    3.41101970776926
H        -0.78292048127722   12.42755159930607    1.84025741991914
C         0.79616721866524    8.63238375675962    3.14126034391783
C         0.92637174288396    9.92471616262168    1.32643045218566
H         0.56435874210805   10.49498235951597    0.49631347416217
C         2.18628533324700    9.63988040822465    1.72416337782873
H         3.13072177675494    9.92165079523292    1.30659941634186
C         3.21049913229204    8.33804787266965    3.58724122188796
H         2.83779757941666    7.49115464360036    4.18230135945034
H         3.58169919113888    9.11970710234152    4.25957890527059
C         5.12129629947796    6.43101233453001    0.95598643533984
H         5.00121069318277    5.60653937764793    0.26618653034078
C         4.09132770234980    6.80657902516634    1.80336770665489
H         3.14836030728115    6.28012725293938    1.81914063776640
C         4.30610710258297    7.87412936023799    2.66800945511612
C         5.54405091990733    8.50379374784477    2.64284659229880
H         5.75664673756620    9.33444016421933    3.30055600310768
C         6.50284489232768    8.04026755931773    1.75488693555153
H         7.48134362310217    8.50036008925025    1.70156970423910
Cl       -1.13522641218256    5.71463617391047    5.58473993597446
N        -0.08053968048860    9.29714189801022    6.56981757414084
N        -2.08429606316114    8.84914515318812    5.93944330679353
N        -6.29921295397747    7.03390881962769    7.85334983468752
C         2.15446761166180    8.34139719296202    6.91284263020108
C         3.52654234723403    8.54385541674451    6.97930338216807
H         4.16489361195553    7.70770797558471    7.22396772406062
C         4.09954497813030    9.78441018304047    6.73781602420099
C         3.26614369038911   10.84720767636992    6.42173310141975
H         3.69211471119227   11.82164031639024    6.22867398114889
C         1.88837850974902   10.69295398785827    6.35243847013530
C         1.33601261945684    9.43351239193981    6.59932736472539
C         1.59764572061393    6.97855974407253    7.17024010703157
H         1.46666555017956    6.43920279111851    6.21485856356310
H         0.62654900465974    7.02125112120835    7.66292220067038
H         2.28062817942829    6.39497107442443    7.78254513953668
C         5.58452047003913    9.95888764432339    6.82399782338190
H         6.09524072777384    9.16390226623798    6.28331110398964
H         5.90556584905270    9.90958288470394    7.86403445892963
H         5.89166830616104   10.91930710259436    6.41746442721796
C         1.02942423138629   11.87977976797018    6.02850277508182
H         0.09925356097814   11.58143216025767    5.55133234339339
H         1.56186629903615   12.56153136075061    5.36860416830384
H         0.78137637720985   12.42657513702511    6.93861029999278
C        -0.79616161975013    8.63236089604777    5.63720239869880
C        -0.92631585225756    9.92431782958155    7.45229364500073
H        -0.56434072561989   10.49443052423766    8.28252207735674
C        -2.18623715180704    9.63958626396857    7.05451293691630
H        -3.13065418013047    9.92125767853047    7.47216242821544
C        -3.21039088393598    8.33803847168174    5.19111500597330
H        -2.83763374804503    7.49101614019346    4.59625303969873
H        -3.58145100899625    9.11960142425422    4.51857057070155
C        -5.12155255497966    6.43147956424666    7.82243292151445
H        -5.00159897825893    5.60712413025228    8.51239676278091
C        -4.09148884507801    6.80681847160743    6.97507642119949
H        -3.14855051574402    6.28031998809483    6.95948081264660
C        -4.30611619628822    7.87425180866032    6.11024463908976
C        -5.54401086597303    8.50398968538994    6.13515070551326
H        -5.75646952167501    9.33452813966546    5.47725662318388
C        -6.50292747594853    8.04066101437039    7.02307733579241
H        -7.48140441377844    8.50081361794889    7.07618532139898

