40
CSD_code = KAWSUY | q = 0 | S = 0 | Stoichiometry = C17H13Cl3F3NO2Ti | MND = 6
Ti        6.22278189627532    1.78989905536595    4.43159454436771
Cl        5.21517260234481    3.78248505942498    4.02585570817594
Cl        4.47329196612622    0.65846172012287    3.78571685197254
Cl        7.20406170746713   -0.00763203162446    5.36485183316321
O         7.15344367584334    1.78127573320056    2.94569754467227
O         5.53460715136646    2.15511239451914    6.35487826571864
F        10.31167805351964    4.86255947350900    5.42365851798300
F         8.98539272480701    6.09027280972720    4.28047092478918
C         8.42219385889732    3.73893069837377    3.10907616896250
H         8.92783235060683    4.53102507740300    2.58268080553544
F         8.40623507870762    5.46103133632093    6.24154677713437
N         7.74129335068860    2.92497930908710    5.24683432139702
C         7.83402767870074    2.71076524962717    2.37373086626895
C         8.36003758724720    3.80835023496619    4.51125675878334
C         6.57398077192549    2.37346479571489    7.23685160420708
C         6.91899330244757    1.94842810745863    0.23265113502090
H         6.12863167890649    1.48208278982486    0.81008081812028
C         9.01222285192698    5.05139121213415    5.12296259121627
C         7.92117488927533    2.65433859172636    0.90787385409366
C         7.94112558812874    2.48708945684703   -1.86638265139331
H         7.95018257013341    2.42660168958073   -2.94420651081639
C         8.93979614896132    3.26613404439865    0.17489625062977
H         9.73862620571405    3.78531780902753    0.68076701752267
C         7.77268339486035    2.81752727255425    6.63469037921541
C         8.90780631869132    2.97724227781177    7.42426071553463
H         9.85388578637769    3.22166277445424    6.96880431719974
C         8.94536943956920    3.17709593097751   -1.20386977178697
H         9.73797283222466    3.64637965581104   -1.76687234491612
C         6.92856584177067    1.87233453468787   -1.14570978861463
H         6.14701977127408    1.33434314264355   -1.66012138818895
C         8.83845471900405    2.77133941332563    8.79196076769954
H         9.72554486228015    2.89814011061735    9.39157258852882
C         7.64662858474575    2.39698455753199    9.38043940633425
H         7.59187800711143    2.24082842545250   10.44617363194973
C         4.29682881353541    1.70002866882930    6.89411850542028
H         4.41569487842794    0.70242598506942    7.33367690240181
H         3.59831208232769    1.65030968979461    6.05318459042803
H         3.92340626377124    2.41232422592437    7.63746554391810
C         6.51237786170379    2.18619354017295    8.60499720248575
H         5.60418685230515    1.85537517760297    9.08158474486636

