86
CSD_code = KAWTUY | q = 0 | S = 0 | Stoichiometry = C48H32N4OZn | MND = 5
Zn       14.54876636757965   10.57943802832675    8.91331729939551
N        12.81255848272922   10.75648490055291    8.07502403295718
N        15.08603838643875   12.56681607399648    8.39448326547981
N        16.34397248542185   10.16498358712267    9.48190440312699
N        14.10803614410835    8.55978587071044    9.16111072875889
O        13.74594660151229   11.18563525889182   10.90902015075960
C        11.73105294140569    9.92123987045210    7.99224304386541
C        10.57899309372188   10.64622992065276    7.48759421072129
H         9.60296461063668   10.22352018606352    7.34579011332432
C        11.00665231085881   11.92131155986094    7.27091397444371
C        12.39283118854198   11.94848146415339    7.65205182836869
C        12.94947734081125   13.22692811020461    7.50781003203232
C        14.26468377721580   13.51293167851621    7.85963731567776
C        14.97481290632526   14.76050984677796    7.74873372026031
H        14.57967007475832   15.67656798781998    7.35845204522205
C        16.22497371973321   14.54472522329520    8.21524275108221
H        17.02421044553407   15.25556383409731    8.27506837398722
C        16.28895311268981   13.16494489795872    8.62217031599144
C        17.36181868189238   12.46793338707605    9.16752253419233
C        17.27979217046987   11.11227582439032    9.51328456282682
C        18.53038515818248   10.61043842985026   10.01520650834529
C        18.32631106174077    9.29283472620782   10.29156199074605
H        19.01721295494894    8.56153403858979   10.66458102870529
C        16.93842067124215    9.02718475129286    9.95698939498761
C        16.27643411912264    7.80928587151136   10.04963655130603
C        14.93600916362201    7.61120837307581    9.66735678718712
C        14.23171313473840    6.36640724058759    9.78123825444631
H        14.63997538108788    5.45200737553137   10.16602144921916
C        12.97342092147830    6.58519123139388    9.32047125120667
H        12.17301167983020    5.87596648297536    9.23575863721181
C        12.90731679632341    7.96675519773272    8.93950703246845
C        11.76825422938868    8.59285750540491    8.39970587714219
C        11.85293882279339   14.05863458835625    6.97956339443891
C        10.67478410805317   13.26561460522754    6.84292826573938
C         9.49867218421435   13.80753573521916    6.37468935324402
H         8.61378396759341   13.19571300798734    6.27757204760132
C         9.47214626720863   15.15520208633429    6.02836370397609
H         8.55775925626410   15.59543272732870    5.65845097209632
C        10.60847263973840   15.93127560623468    6.15397508629398
H        10.57486265917906   16.97571280529099    5.87926899580204
C        11.80171910985669   15.39297135909772    6.62897057681210
H        12.66656357089433   16.03097931007779    6.71171937404365
C        18.74771899578456   12.85619762634928    9.48720708008150
C        19.41129198597108   14.06148174447879    9.37394997544627
H        18.91846107181431   14.94344566847049    8.99809562208560
C        20.74870700835266   14.14569984437221    9.75311995607735
H        21.26313159390014   15.09148040721338    9.66172731744106
C        21.42557212657622   13.04449347129345   10.24125134094965
H        22.46333979445419   13.13377769699721   10.52733270948778
C        20.77762778484066   11.81915804312436   10.36719320339416
H        21.30164193736679   10.95504137663572   10.74847776768986
C        19.45495383956058   11.72640890259878    9.99584885192649
C        17.02647003857631    6.64987108551909   10.57367401426372
C        17.52804086302885    6.66306622971586   11.87187963624161
H        17.34909648188137    7.52494200727518   12.49861444321738
C        18.23440806517621    5.57940015688240   12.36145322526812
H        18.61424307752448    5.59848085303811   13.37273368574265
C        18.45559695638193    4.47268733983862   11.55896522609261
H        19.00963230773727    3.62803727998568   11.94109917579499
C        17.96467839498501    4.45374041388075   10.26396864412406
H        18.13849855571874    3.59450503023023    9.63261977727283
C        17.25210192729653    5.53294908391287    9.77420784161578
H        16.87624645214511    5.52396230991132    8.76146016056000
C        10.53604400513296    7.79072207288203    8.26423118052647
C         9.91724775108789    7.24721877129705    9.38657693007138
H        10.34532085184553    7.42237636669815   10.36351407124433
C         8.75949776982563    6.50212388745049    9.25645096856452
H         8.28581516989877    6.08843915900196   10.13497889686363
C         8.20792372997312    6.28521584291156    8.00467214667795
H         7.30615747305766    5.69951407191625    7.90399667992455
C         8.81740017975878    6.82191821546052    6.88284160117582
H         8.39237173813857    6.65344451261704    5.90404864688260
C         9.97136076417796    7.57337010850817    7.01072333764505
H        10.45353214016943    7.98551984610209    6.13624434889226
C        12.88058472773642   10.33972955295733   11.64293217902138
H        11.91028207597269   10.25327453532672   11.13295710532372
H        13.34551889222096    9.35643532932840   11.70221695249362
C        12.72624748021228   11.03909053832673   12.99249991823345
H        13.58411339341172   10.81133631042824   13.62467251324972
H        11.81784284911125   10.74295165731187   13.51121886144201
C        12.72915246177202   12.52105341748105   12.59474912647217
H        11.71753290719201   12.92341464294912   12.57029912566272
H        13.31805289508347   13.12028511593901   13.28581184758163
C        13.34176680317505   12.51976228190664   11.18050167799977
H        14.22758280922018   13.15029673300231   11.09316084982436
H        12.60411917286553   12.84502989224395   10.43581014395703

