58
CSD_code = KAWTEJ | q = 0 | S = 0 | Stoichiometry = C28H20Cl3F3NOPTi | MND = 6
Ti        0.60642191612310    3.91383450861719   16.40468702123877
P         0.52657160325759    2.44042720260988   14.39327062818853
Cl       -0.22895411044702    2.09651011446111   17.42411994445188
Cl        1.11238055763771    5.53146703337599   14.88435810901043
O         0.19892196129998    5.09397896430569   17.68644266211218
N        -1.39274304015225    4.18203602899317   15.69270809395098
C         0.83528828022041    3.12615951431038   12.73391083977309
F        -0.40172560402842    8.50963434889487   18.07333590267348
C        -1.27247698472594    2.14550897805380   14.39435202336961
C         1.25288821631395    0.77620514068249   14.24157184832134
C        -2.04117899238731    3.11760574860821   15.05844563358953
C         2.14238376488407    3.54517718220316   12.49127705690834
H         2.88178710624979    3.43559963333947   13.27737213140377
C         1.76867425420331    0.17003439745615   15.38348263951040
H         1.72905561584809    0.69262403463229   16.33109004647828
C        -0.46242384096230    6.17413847220072   17.51708081639400
C         2.47304803766884    4.10604289666256   11.27344307097571
H         3.48413586702183    4.43436699771578   11.08588112556889
C        -1.44454245668218    6.39526056466901   16.59548112386616
H        -1.89592492995384    7.37232905442672   16.52839068091701
C        -2.94851006937775    5.78971120043191   14.73378604883167
F        -0.62736352081521    7.11516420044334   19.69184927186298
C        -3.41938897988725    2.92706912345397   15.16992373737012
H        -4.01146273695190    3.63342595486869   15.73269569366489
C         1.32707997892747    0.12259524251082   13.01301388387379
H         0.95513074053295    0.60559896084411   12.11957434802070
C        -1.91063543307913    5.38035601331347   15.70297568452922
C        -3.62770177572787    5.95483402248340   12.43429419745299
H        -3.43405174072613    5.77132624243262   11.38839700967746
C         1.89119236043876   -1.13783847279424   12.93778256684393
H         1.94635271986055   -1.64457316453067   11.98537442776972
C        -4.01837468181443    1.81656022140644   14.60535678553189
H        -5.08425616569233    1.68086490362581   14.70764378594732
C        -0.13743894389605    3.27913109379083   11.75335044817080
H        -1.15221058378793    2.95081618697141   11.93800920939665
C        -4.10117898739580    6.46778322241810   15.11910918145502
H        -4.28666815946602    6.66073475019382   16.16566334742764
C         2.33131336571509   -1.09160903882622   15.29773094027622
H         2.73078404351714   -1.56178143732546   16.18351130400123
F         1.26474247175093    7.27698536954153   18.67109359040201
C         2.38959606277529   -1.74700571585993   14.07856658281899
H         2.83169988159413   -2.73008337296570   14.01345624427091
C        -2.71268211040935    5.54012888585876   13.38265758227157
H        -1.79044393503401    5.05772482030165   13.08910426507329
C        -1.88815500750483    1.03575045188284   13.83307695688358
H        -1.28430145790732    0.28928338223959   13.33738425175529
C         0.20116063840100    3.84660763636404   10.53602051657170
H        -0.55436565519294    3.96797725335537    9.77327467767702
C        -3.26025695405783    0.87487313937840   13.92839059549928
H        -3.73324009849488    0.00712014247207   13.49507124551744
C         1.50063907392611    4.25947987282356   10.29614200526441
H         1.75616404701999    4.70677918105186    9.34717584254536
C        -5.02085997999509    6.86324898508507   14.16480253940350
H        -5.92011805657962    7.37755171051384   14.46850622371579
C        -4.78670991719222    6.60740789077401   12.82354785891445
H        -5.50401200072087    6.92379850698581   12.08148553104187
C        -0.05697013320904    7.28439452787071   18.48735142663333
Cl        2.68031447906342    3.41366729039626   16.78144879293324

