106
CSD_code = KAWVOV | q = 1 | S = 0 | Stoichiometry = C39H63AuN3(1+) | MND = 2
Au       -1.45011357330873   -3.09454019712687   23.04626641212870
C        -0.39808109542358   -1.96651509327996   21.76424714933139
N        -0.14201195499611   -2.23295280898236   20.47539412699046
C         0.65092952101906   -1.25736758539437   19.93698658666995
H         0.97217001918591   -1.28177699390805   18.91674887973442
C         0.89055885878055   -0.36084295358408   20.92579323476814
H         1.46194368872173    0.54385907758175   20.93098803806625
N         0.23559318429323   -0.81627213279207   22.03696166417205
C        -0.65643290558623   -3.36765673584711   19.78566304529532
C        -1.89804490081399   -3.26326411874957   19.15526670284343
C        -2.39275217796211   -4.38817681664761   18.50818048992431
H        -3.34451101350432   -4.33680876733731   18.00356569032886
C        -1.67936012298221   -5.57184216119428   18.49956860344535
H        -2.08096497133421   -6.43717446825105   17.99499511782277
C        -0.45326245759565   -5.65232166048285   19.13189091622024
H         0.09171633625574   -6.58231508537454   19.11626646010168
C         0.08657386740080   -4.54972163311408   19.78110500104066
C        -2.69917921413852   -1.98273656444486   19.17939501827254
H        -2.11844150664528   -1.19989400187577   19.67771686147691
C        -3.00737778164219   -1.50106721491920   17.76037826528821
H        -2.09045924490158   -1.39294496617046   17.18536510822218
H        -3.50667970470042   -0.53606386068554   17.79707682869360
H        -3.65702976482541   -2.19914581379039   17.24067830362219
C        -3.98806556605754   -2.18622527709817   19.97957424278406
H        -3.75529423383356   -2.49672879645135   20.99757348879096
H        -4.61279774537375   -2.94679889682040   19.51961059460943
H        -4.55183975742636   -1.25775711713350   20.02077535403125
C         1.42673847397769   -4.64601793058278   20.47201272467899
H         1.73238123217460   -3.64939873528926   20.80732949979540
C         2.50626125392308   -5.16350851751334   19.51957762109134
H         2.54168684868728   -4.55798991754298   18.61684566200087
H         2.31937994629128   -6.19443654598841   19.23416016191529
H         3.47880069559871   -5.11757237488648   20.00326120909660
C         1.31369373509858   -5.54211074731563   21.70817285654927
H         0.58389476388939   -5.13262063165599   22.40696978982307
H         2.27543208781223   -5.60837362338195   22.21039936655028
H         1.00172571132299   -6.54498476096072   21.42920004439414
C         0.19274152766690   -0.16806447715173   23.30419240963698
C         1.05162296780401   -0.60063894647997   24.31613095892406
C         0.96721711206006    0.02875794376138   25.55166891185376
H         1.61925697347824   -0.27963692878567   26.35309395248434
C         0.06198049225254    1.04971149995611   25.76626120840510
H         0.00900534764210    1.52690529552757   26.73267317700379
C        -0.77456201510022    1.46664985551211   24.74755298434264
H        -1.47027665330740    2.27015256451643   24.92749713381785
C        -0.72448491339311    0.86896452532381   23.49537607644157
C         2.05641200317735   -1.70642786655094   24.09250121234302
H         1.96061341835848   -2.08178463149182   23.06848505768430
C         3.48175745671380   -1.17729491999714   24.26671949415294
H         3.66554468907079   -0.34454205543240   23.59156535439279
H         4.19980648269213   -1.96354980482657   24.04748690113036
H         3.64945546559557   -0.83554376122155   25.28402557518720
C         1.78902039677865   -2.87714341548312   25.04057168375601
H         0.76893612236177   -3.23872987152712   24.90922446540952
H         1.92051522450166   -2.57898144037399   26.07679451385059
H         2.47603012229119   -3.69267560869764   24.82899121443399
C        -1.66806819861801    1.29843125547925   22.39560244150882
H        -1.28981349724325    0.93372851687623   21.43496790072845
C        -1.78354844631703    2.81981151187988   22.29328568868535
H        -2.32422178952289    3.08636887902001   21.38852362220506
H        -0.79815027194682    3.27803412084205   22.25273869378593
H        -2.32439290505993    3.23490380075133   23.13873717705292
C        -3.04363553463487    0.66696164107667   22.63319158463316
H        -3.73296695281663    0.97046155714172   21.84952232169198
H        -3.44798038751833    0.98511762115265   23.59071959778476
H        -2.97179662210050   -0.42012655622093   22.63197666828163
N        -2.55689688831557   -4.32148143668150   24.47314934059820
C        -3.87168592394155   -4.66693219048432   23.89192045916096
H        -4.40111466186588   -3.72899442166711   23.71196242051204
H        -4.45916578480427   -5.24385939102043   24.61417441753165
C        -3.79221961398945   -5.43496456037457   22.57583126415615
H        -3.45740610547102   -6.45835146362245   22.74940711772258
H        -3.06659828718010   -4.95252755652011   21.91201390896112
C        -5.15254353860639   -5.48063353546754   21.88082814687969
H        -5.88461429846409   -5.94109153638644   22.54699186274662
H        -5.48899852761064   -4.46300537423240   21.67159720568791
C        -5.08123774100359   -6.27067657584604   20.58065938928835
H        -6.04561573764740   -6.26608146480252   20.08018226701494
H        -4.80331797473922   -7.30374423287657   20.77512067318954
H        -4.33921441989596   -5.83723203016348   19.91373496252208
C        -2.75655870480912   -3.58741542984746   25.74261032654618
H        -1.80776263649177   -3.60537502049474   26.28488157892405
H        -3.50642934639611   -4.10135993937542   26.35322819281131
C        -3.17658130326240   -2.13007929517909   25.57943631787752
H        -4.13229232244276   -2.05988109018443   25.05758002158187
H        -2.42690500667217   -1.59816590047201   24.98571367931648
C        -3.30530700223846   -1.44402318885353   26.93939465081044
H        -4.05967006458108   -1.95983893076870   27.53667522778954
H        -2.35342957595876   -1.51387889444370   27.47020832607510
C        -3.69195648359361    0.02101942110334   26.78750961712481
H        -3.78290069871097    0.49166266031719   27.76260878717769
H        -4.64600715341065    0.11417588093169   26.27299747347175
H        -2.93378481899338    0.55270173383049   26.21655516682909
C        -1.74172991362421   -5.53459510079394   24.72691008496605
H        -0.78574058622943   -5.19960472290920   25.13898591741597
H        -1.53345474673661   -6.00309292120768   23.76358321963708
C        -2.33026408276925   -6.58609840024965   25.66872059459406
H        -3.25516734982010   -6.99359327278323   25.25873823918476
H        -2.55249759807805   -6.14615364977527   26.64175278606909
C        -1.33756171757159   -7.73237376589041   25.86522926965077
H        -1.10501835886211   -8.18070624583650   24.89667105732313
H        -0.40688001244454   -7.33834371605437   26.27946835300128
C        -1.89443043726697   -8.80001351001638   26.79815605695870
H        -1.17409537507468   -9.60295348253774   26.92748692745829
H        -2.81032799912462   -9.22417527930962   26.39335245902341
H        -2.11471534752086   -8.37761604491101   27.77573313014169

