34
CSD_code = KAWZIR | q = 0 | S = 0 | Stoichiometry = C15H16Cl2Ti | MND = 12
Ti        2.06829782045313   -0.13602408496545    8.61606730437787
Cl        2.29890978774592    1.39434781012520   10.22003746086633
Cl        0.51802727148022   -1.25443746271257    9.76350727376740
C         0.87085030746656    1.68425232553409    7.72936565916377
C         2.06218253216463    1.56216533709397    6.98458244310400
C         1.98841727938447    0.31953745362747    6.30477183786738
C         0.78435140253550   -0.34320816169814    6.65566415409114
C         0.09015425117241    0.52010379383718    7.52864634165736
C        -1.27923430263717    0.82422332382862    8.06122428493165
C        -1.86582464343657    1.83675931901783    7.04667891345157
C        -1.01428492928100    3.10647662921039    7.26541960160625
C        -0.02481414037562    2.69472356003969    8.38350031410213
C        -0.92492508545876    1.77040494333472    9.22133574207528
C         4.25294466087522   -0.60096739390371    7.84357030980759
C         3.47171408444468   -1.76364476610116    7.63108939566980
C         3.09879966678831   -2.27002291330657    8.88778908753704
C         3.63049621381056   -1.41781497885817    9.87864621900840
C         4.35917031811723   -0.39876632404700    9.23040402243456
H         2.82330088340520    2.32026522855065    6.84472137654329
H         2.68332984791862   -0.01511244143283    5.54582298207286
H         0.41717178153737   -1.26736411254213    6.22560548750026
H        -1.92370661220160   -0.02112570297178    8.29153316604339
H        -2.91534823249307    2.02281837334418    7.27162831762233
H        -1.79470609491617    1.46375346218939    6.02565674205813
H        -0.48893301670363    3.41109007833775    6.36104154259985
H        -1.62955074649741    3.94007395456118    7.60201418176673
H         0.45306168384014    3.52288802623404    8.90194855987903
H        -1.79759953822117    2.28726334880043    9.61804926136334
H        -0.39072011031226    1.27275166004018   10.03139951806121
H         4.79950028645579   -0.05254286965566    7.08753901411033
H         3.31540373702581   -2.26260509793710    6.68370808206612
H         2.56975300526721   -3.19689900574945    9.06753814663915
H         3.56270435972424   -1.56830753341377   10.94880546581857
H         4.96270627091836    0.35574422157527    9.71798779030778

