104
CSD_code = KAXBES | q = 1 | S = 0 | Stoichiometry = C55H43OP3RhSi(1+) | MND = 6
Rh       13.14196374544938    4.84201697042523   14.69383476743216
H        12.57884203293508    4.19033202004754   15.94471397705012
C        14.88479921472325    4.29813041709476   15.29208769283873
O        15.80797636009105    3.92019385040445   15.84607179940573
Si       10.96248776489583    5.44051563246339   14.10163376041324
P        12.40404284190971    2.82935777861659   13.79458064634679
C         9.87951750788396    3.87386349719209   14.17009974179741
C         8.50483826144071    3.81671162731184   14.31667441128644
H         7.94585881419481    4.72837718895575   14.46071804501176
C         7.84683660055106    2.59761442638313   14.29897905992757
H         6.77542223620944    2.56076215803425   14.42548581448614
C         8.56302570400720    1.42482220182908   14.12405020297857
H         8.05089565299796    0.47471042812429   14.11297798444684
C         9.93906553132398    1.46402248747340   13.97176698641989
H        10.49264013439383    0.54478758542697   13.84744820791786
C        10.59485787465280    2.68718189902119   13.99966309105244
C        13.01535061985654    1.29140326148545   14.56056920276697
C        13.46156656957461    1.29935524430911   15.87842564666524
H        13.49765111998796    2.22723905343420   16.43373512739394
C        13.85635897439536    0.12460975137983   16.49348586892872
H        14.20518280161304    0.14691930229129   17.51486319894139
C        13.80339463985892   -1.07348261146690   15.80202311230146
H        14.11397184660612   -1.98962679456594   16.28010405494982
C        13.34828453190484   -1.09286906167247   14.49336799646042
H        13.29916985052594   -2.02505870000776   13.95090053194914
C        12.95377668578624    0.07812332043341   13.87331651374755
H        12.60860403247820    0.04788192544494   12.84925988717528
C        12.61607607193238    2.50417237380389   12.02087070780028
C        11.61555645931456    2.83906075433914   11.11474632474475
H        10.70906645052185    3.31523781020546   11.46304504132492
C        11.77543456364028    2.53984194258145    9.77341381476128
H        10.99389222576557    2.79288325039662    9.07273859900103
C        12.92316479967275    1.90046658927724    9.33469122736591
H        13.03254951988417    1.64445345649956    8.29196982895335
C        13.93337645092793    1.59019083318616   10.23256291245961
H        14.83077524311914    1.09755222410966    9.89033856018122
C        13.79082609332150    1.90556392083156   11.56980163363001
H        14.57921863892290    1.67360989516777   12.27433979388716
P        13.66683242193384    5.87564267320291   12.65723295352824
C        10.93473624764439    6.03569957074821   12.28142571944379
C         9.78059316919870    6.32192243293585   11.56581402284499
H         8.81764816049994    6.12295272935093   12.01197110749407
C         9.85796350118977    6.85680540614132   10.29215516697970
H         8.95576130315187    7.06496718823722    9.73711467625920
C        11.09420407234726    7.16085566829530    9.74144328890763
H        11.15312934366585    7.62257211043395    8.76732836575094
C        12.25443958044245    6.88295262817504   10.44076563185464
H        13.21496430829201    7.16257673451450   10.02993734609330
C        12.17519986734726    6.27310828048636   11.69005286846657
C        14.77235189687673    4.94854406848962   11.54183022944398
C        14.52260848813768    4.71559423722720   10.19605439794105
H        13.57908267631030    4.99723889253019    9.75538126877045
C        15.47904038783365    4.08868796346415    9.41547825513418
H        15.28085884138113    3.92169807537980    8.36755749651095
C        16.67959946798587    3.67713476695592    9.96759619681469
H        17.42261247065524    3.19447460420752    9.35147176870400
C        16.92177925469183    3.87672569799568   11.31746274332337
H        17.84997594106598    3.54491363817793   11.75850155016969
C        15.97340779099026    4.50919691506408   12.09750662356538
H        16.16152822937283    4.67136619749675   13.15307829433258
C        14.43320845125255    7.53328328546148   12.58318825320578
C        13.60555439233104    8.61495777908999   12.87932367801871
H        12.58213215927730    8.43530071299058   13.18990644031680
C        14.08062025758264    9.90570587760140   12.76317307426508
H        13.42875778172672   10.73936789435142   12.97610479487520
C        15.39035921318754   10.12923202528756   12.36848795740403
H        15.75965550222480   11.13840062060303   12.27070678124154
C        16.22260277957714    9.05735529108222   12.09832976059092
H        17.24413271578378    9.22842465844647   11.79377085528117
C        15.74950287946655    7.76052792182963   12.20207300281703
H        16.40480165969492    6.93290429858147   11.97222875327740
P        13.00273102518345    6.70718462818054   16.06230017398127
C        10.37751909738919    6.88046012870891   15.21180314838059
C         9.09786127816750    7.41098954837660   15.21902199479303
H         8.37419678357488    7.06393172818718   14.49803130952124
C         8.74009234030792    8.37929786615131   16.14165850252595
H         7.74006544829503    8.78578014965729   16.13710814975344
C         9.65486593826922    8.80837657718586   17.09150301852583
H         9.36298510297101    9.53426389639495   17.83523964647735
C        10.94320431799701    8.30441078526528   17.08890053989720
H        11.65302038280261    8.61566610756268   17.84397264794540
C        11.31008159415384    7.36604449621159   16.12831824581094
C        14.11688105250433    8.12847834870550   15.83379425625863
C        13.71892488191632    9.45256215840328   15.96873711691504
H        12.67874777210262    9.69908743803084   16.11771791304440
C        14.66059233481230   10.46404581465340   15.89447734435310
H        14.34852423850914   11.49109969292937   16.00928464558838
C        15.99473159133167   10.16659073569928   15.67562157019737
H        16.72461263055150   10.95970476836932   15.62561429530363
C        16.39189226129341    8.84934959118528   15.51083171579566
H        17.42923947961822    8.61387549467369   15.32629731457395
C        15.45699622298010    7.83566852571416   15.58803442106995
H        15.76073259812425    6.80331659473061   15.45448852445859
C        13.30324537116491    6.30182246552114   17.81577135863911
C        14.47040074660844    6.64161059860100   18.48893168218894
H        15.24843818977503    7.20123652630459   17.98928281201233
C        14.63539121057071    6.26708187336809   19.81215218884497
H        15.54351570754812    6.53403044406051   20.33130410066687
C        13.64402743675355    5.55724668930375   20.46710547795312
H        13.77792902346191    5.26895318459980   21.49837216898875
C        12.47803806741755    5.21668167615233   19.79752373459788
H        11.70231093816104    4.66436272341837   20.30613050812568
C        12.30832562858674    5.58267306450395   18.47715206476203
H        11.40191562679462    5.31559692414489   17.94720831015751

