69
CSD_code = KAXDOC | q = 1 | S = 0 | Stoichiometry = C33H31MoO2P2(1+) | MND = 9
Mo        3.12697313846895    2.16288197551750    3.00125760530834
P         5.30897913961444    2.92596617304411    3.79046418472586
P         2.55655534244745    4.01616223296779    4.45214630174330
C         3.60597333937766    3.72631490014027    1.33460142598117
C         2.36773247381563    3.15271538442718    1.05793045772753
C         2.10880636183541    1.76318591136159    0.92352819221244
C         3.02267064185129    0.71899458052803    1.18221342609021
C         4.37252789153356    0.92117261656335    1.49992206459068
C         3.36516048925884    0.69897197465364    4.24632884422248
C         1.26767656522029    1.72808094361009    3.38899261368389
C         5.21447764487307    4.73241396218866    4.13944686297809
C         4.02959572579617    4.94696417026876    5.06987885458965
C         6.74177250898620    2.71052908914843    2.70804247997861
C         7.23279809903380    3.71127729574817    1.87723868530249
C         8.29977451994095    3.44287813400629    1.03512025505856
C         8.87273533190328    2.18257239034983    1.01207765483511
C         8.38028647397847    1.17923399428314    1.83442047089716
C         7.31609788728058    1.43888114348097    2.67504358515296
C         5.93350318527625    2.37764291800557    5.40915297963099
C         7.29960342297561    2.37391142266822    5.68691720652433
C         7.74877848044978    2.02746518247189    6.94823795820802
C         6.84582504078255    1.69793132231191    7.94621445506576
C         5.48585428726364    1.72837736639485    7.68439568841217
C         5.03090692541832    2.06836497950929    6.42302147516397
C         1.59993976091499    3.82048583733846    5.98091433694715
C         1.31995469289457    2.56912307436014    6.51743672617812
C         0.60742439329007    2.46822235844630    7.70035441296582
C         0.17423882889843    3.61156214186803    8.35066954283005
C         0.45123602004287    4.86200372829011    7.81864345167192
C         1.16097733644338    4.96976085963780    6.63847837890323
C         1.55877014414218    5.25231254385381    3.57443970362275
C         2.08634847463579    6.40408083421968    2.99942940511750
C         1.26501076342287    7.25938474244259    2.28394564709195
C        -0.08104606615862    6.97199323867970    2.13409280048339
C        -0.61283565590936    5.82533624882970    2.70519984022563
C         0.20254336468384    4.96692024205693    3.41734948690728
O         3.45912832320232   -0.24212379388498    4.88541968561064
O         0.19987733683427    1.42997341056533    3.65115177809845
H         3.58084275027510    4.80471702095253    1.46522105453347
H         4.49393980723645    3.40569360354215    0.80286645328898
H         1.49118705352689    3.79994633125121    1.02681890267011
H         1.09740643132041    1.47923346848870    0.63574659148133
H         2.60634659673873   -0.28700306201365    1.23305992081220
H         4.91379018571548    0.02482096190242    1.78730420838621
H         4.97632743073142    1.56131333676954    0.86834711824996
H         5.07558644255459    5.27319486011277    3.20027485260678
H         6.15236185580989    5.06009585209812    4.60280287156676
H         4.25769216741258    4.54075429975128    6.06269810935886
H         3.78066433086083    6.00631206777198    5.18787232334812
H         6.79685300019691    4.69982739386134    1.88577388270628
H         8.68419665035842    4.22299429050161    0.39571073430992
H         9.70354780794696    1.98074042240029    0.35414956864190
H         8.82784389974857    0.19737910345213    1.81827098568392
H         6.92325367704851    0.66687990913254    3.32566553190702
H         8.01233512708811    2.63624529348184    4.91814097630891
H         8.80852729975856    2.01698726211468    7.15225124243335
H         7.20142097118716    1.42280526309106    8.92688764903902
H         4.77671390150045    1.48617087704267    8.46117627412905
H         3.96580287099821    2.09821296243350    6.22285752463047
H         1.65209548614133    1.67281847507684    6.00738789078903
H         0.38826149338994    1.49469471664703    8.11124094942617
H        -0.38348646960185    3.52961615049415    9.27062705662521
H         0.10992298458573    5.75275068289088    8.32344255723770
H         1.36749926972752    5.94282021818929    6.21299936416107
H         3.13273552228124    6.65090305970931    3.11511037270434
H         1.67883369492952    8.15468202967114    1.84487584882685
H        -0.71666334532079    7.64252369094227    1.57710998713630
H        -1.66332377165783    5.60304538253763    2.59611409186688
H        -0.20894775730507    4.07589854541042    3.87477618042223

