86
CSD_code = KAXDIW | q = 0 | S = 0 | Stoichiometry = C29H45F6NO4W | MND = 6
W         3.84322944505179    1.31147897022224    3.18232677774496
F         0.68154933283014    4.60668594186158    1.83112154093093
F        -0.28127518043762    3.43503075567930    0.31077287086261
F        -0.40314885487488    2.83664625755029    2.37114149520662
F         0.79857697149132   -1.62559184695756    2.52992879971057
F         0.27020585875062   -2.52472315530828    4.41143264310429
F         2.22424434636217   -2.84407870011083    3.57515522273899
O         2.29120032091188    2.41947184054114    2.54622030481002
O         2.82639822743725   -0.17132188473894    3.67376334806293
O         2.90957453622917    4.49329079912385    4.52413539750916
O         3.07172895679029    2.29882132661292    5.03852433295776
N         4.65931844975555    0.83235932121871    1.66640677512343
C         5.23522258331125    0.44474831185493    0.50050242981861
C         6.05495675341994    1.33139729379820   -0.24417951340844
C         6.60578273534332    0.90728118175643   -1.44006749951826
C         6.37513888733061   -0.36701281221167   -1.92633257669013
C         5.59289567115451   -1.24456765266945   -1.19663833226376
C         5.02222416999473   -0.86643208616236    0.00446494178199
C         4.20696457796147   -1.84611085504834    0.81662015342520
C         3.02393097269793   -2.40050861554314    0.02056026021526
C         5.09612403611667   -2.99051055531578    1.31161852771464
C         6.35138742003125    2.71357886146284    0.29298407490342
C         6.04934752701684    3.81230121512332   -0.72955416335562
C         7.81752358323604    2.80942051081724    0.72500250532533
C         1.71280553166347    2.50307519997806    1.29244774316065
C         1.32801075952028    1.11154449517554    0.75925566892505
C         2.64562979669089    3.22302174758338    0.30829060935467
C         0.43020829509128    3.34747459054319    1.44804147436748
C         1.80728353175850   -0.66149179359437    4.47308650137790
C         0.66625061057710    0.35772225311595    4.59911518841761
C         2.33168096298684   -1.07825783487756    5.85439298094519
C         1.27078182812304   -1.91885248014638    3.74997255465272
C         4.82573420468263    3.28275812819233    3.82229958693762
C         5.94232668649827    2.50565771844296    4.57777677193938
C         5.45846365180059    1.03115498908071    4.65727192584737
C         6.59037361704673   -0.02700759272894    4.64878008415379
C         7.51351918864873    0.13259921749372    5.86519690610221
C         5.90584715383081   -1.39985591115989    4.71450600583881
C         7.43515800768144    0.03692402258874    3.37421937001625
C         3.57488983720862    3.33172210992308    4.52141666879746
C         1.56021799372782    4.45907768842593    4.97444466937450
H         7.23220984816824    1.58150391321505   -2.00505944733817
H         6.81146154482646   -0.67809981662899   -2.86372038268348
H         5.43012981086794   -2.24417432314325   -1.57142942926172
H         3.81904055237024   -1.30495547888238    1.70139832952146
H         2.40701708587587   -1.59473830155959   -0.36956118629548
H         3.37033727075764   -3.00271485727976   -0.81605502046062
H         2.40758784699637   -3.02801315849164    0.65918759169274
H         4.53727176258355   -3.63081129569189    1.98990521844841
H         5.44589366197081   -3.59157700042605    0.47533514727338
H         5.96162596269359   -2.59433708660631    1.83594567484570
H         5.71545354106974    2.86091776231658    1.18519244223376
H         6.12125394082364    4.79000986942333   -0.25796269696328
H         6.76419394374955    3.78104087739215   -1.54826073003867
H         5.05246252024422    3.70209173140196   -1.14673042029811
H         8.05336074902768    2.02731929380213    1.43939088588408
H         8.47456181134698    2.69516525152669   -0.13422517212642
H         8.01418698336790    3.77690810828377    1.18233675407320
H         0.43889054394327    0.72844710373933    1.25689575916555
H         1.14104369595225    1.14555300388556   -0.31088446124492
H         2.17040150610695    0.44078002317811    0.97124706378574
H         3.48795246003207    2.56374100991152    0.10668443963691
H         2.12701050379821    3.45362211864422   -0.61959525986734
H         3.00746893352694    4.14629790091426    0.76077180441819
H         1.02595851557810    1.20933040420793    5.17270497489883
H         0.36318680972613    0.70104134837526    3.61084968313291
H        -0.19071552419303   -0.08303175988213    5.10323138537279
H         1.51547796641612   -1.43734247442115    6.47634308625843
H         3.07721497990612   -1.86340954818087    5.74776368260210
H         2.79018044182486   -0.20830141763298    6.32032254154980
H         5.13524313286251    4.27484661491459    3.47057013127180
H         6.86091636221446    2.58286683454621    3.99061048901741
H         6.13342039931484    2.96160523261624    5.56098974438876
H         4.99404457442258    0.91266502849602    5.66014837151805
H         8.27073432161685   -0.64880812284391    5.87282735822440
H         8.01876817439947    1.09487229243372    5.84132498280015
H         6.94769818894890    0.06658268255820    6.79212690908671
H         5.44725237935668   -1.54785789415272    5.69018837693286
H         5.12919837999487   -1.45403545883002    3.94315818551037
H         6.62195850947070   -2.20344121590077    4.55594267642026
H         8.06671193703959   -0.84566620190345    3.29519566498840
H         6.78497713879767    0.08532840782802    2.50202606491786
H         8.08914013065094    0.90489333511344    3.38373460698535
H         1.15994883085065    5.45237773108733    4.78959266595446
H         0.99661650633128    3.71158942266402    4.41243887937898
H         1.51966837892859    4.21939713837536    6.03977760748639

