80
CSD_code = KAXDES | q = 0 | S = 0 | Stoichiometry = C27H43F6NO2W | MND = 5
W        18.51972714191523    0.23421137340232    1.72004311329417
F        18.35614088482046    0.57820785073745   -1.03614414125060
F        16.47614885670885    1.57338810288000   -1.34612224446107
F        18.22072068221570    2.27069699430911   -2.37731751063877
O        17.04318362602462   -0.77326099779583    0.99254922705958
O        17.80178461076427    1.96646436344208    1.13119200065380
N        20.14937877426122   -0.16987972387985    1.13592057332145
C        15.70506160256548   -0.94539648323813    1.25226219712054
C        18.11278433443231    2.70797640977695    0.01718517251092
C        21.23772233767313   -0.72910404864177    0.56826987298930
C        21.10976557969690   -1.94026947382470   -0.15931404637728
C        22.23041708017658   -2.50048596739713   -0.74364209352687
C        23.47508877847082   -1.90447466702838   -0.63236379089198
C        23.60948869416188   -0.73273289343678    0.09063096042953
C        22.51706791473717   -0.13660438963840    0.69322398011083
C        22.66567925366641    1.11931439855855    1.52000003806991
C        23.48526162905235    0.83195077200373    2.78039085974810
C        23.29544323288079    2.25805952968518    0.71591513895263
C        19.20863585137738    1.27750475587198    3.50310061132686
C        19.56906156105292   -0.03990864212396    4.22829583536828
C        18.67575446641915   -1.05701588277738    3.47429875712792
C        19.48282969435996   -0.03894507052085    5.78028317288390
C        19.95682973517063   -1.40043487049580    6.30040403986080
C        20.41930902481364    1.04768222683008    6.31986063590650
C        18.07081668192425    0.22369172450948    6.31067521243178
C        15.45950924842992   -2.14307083633001    2.18803107838412
C        14.87971781945848   -1.09545354044598   -0.03626088723311
C        19.61810053446374    3.02378288943700   -0.03222432962132
C        17.25991147816723    3.98323081335772   -0.07502123173163
C        17.78463256745324    1.80914105351653   -1.19847526246330
C        19.76118912980854   -2.61381728863451   -0.26109912235372
C        19.78328925307430   -3.96488223209422    0.45950880096261
C        19.32678744719759   -2.77804633458462   -1.71864312678276
H        22.13705608766946   -3.42370064012795   -1.29736881541112
H        24.33721344437816   -2.35718407833193   -1.09942267678618
H        24.58567350753227   -0.28046621887248    0.18867412659832
H        21.65569775869501    1.42019394370637    1.83328958217258
H        23.02666797421852    0.02500854699408    3.34684504245693
H        24.49959400736051    0.53663631451792    2.52228220980416
H        23.53300077845738    1.71738502896825    3.41105153009886
H        24.32564402612910    2.02563334094672    0.45757148093650
H        22.74288752004512    2.42763425602958   -0.20524632131469
H        23.29035251763694    3.17738627371888    1.29796583665372
H        20.05195437303815    1.98376296346254    3.54266416547076
H        18.37327037217515    1.76774339593880    4.03142716984771
H        20.61489880457294   -0.27413779233776    3.97957819489246
H        17.74606090547499   -1.18837412458167    4.05120335272880
H        19.16280118508073   -2.04553673227929    3.43778683194772
H        19.94486096741817   -1.41752295682937    7.38838165797674
H        19.31085558003706   -2.19685486909319    5.94019396006437
H        20.97117093757963   -1.60465598228816    5.96536671617806
H        20.45930246707978    1.00998225133356    7.40667525878059
H        21.42673197198189    0.90777790715617    5.93478872100000
H        20.07226638008474    2.03437347210531    6.02585053703297
H        18.09569387813645    0.29997421934195    7.39598377755248
H        17.66608668479431    1.15229405060015    5.91720365886519
H        17.39221788319683   -0.58506564444427    6.05126557907996
H        15.93887032395147   -1.97934139324577    3.15128279297823
H        14.39460092891205   -2.30047962940273    2.33778827700697
H        19.87097475409366    3.63585915264969    0.83132237646764
H        20.17598958311921    2.08294583335996    0.02622262268182
H        19.87805176272660    3.55674932739203   -0.94369021914973
H        17.44790091612139    4.50149030015908   -1.01179390749434
H        16.20606418967146    3.72273989155443   -0.00584005649352
H        17.51306364789400    4.63243976153455    0.75834558453506
H        19.01905004829217   -1.96522585888371    0.25100065611162
H        18.79831083543628   -4.42665953806827    0.43134696917882
H        20.49367445853459   -4.64171174236521   -0.01008556054308
H        20.07354750914431   -3.82695852487736    1.49852789344580
H        18.32759449659730   -3.20615102935260   -1.76781215594362
H        19.31387435071999   -1.81134040632645   -2.21535762937916
H        20.00728822483827   -3.43449478225098   -2.25646232150708
H        15.89808567074958   -3.02694268291586    1.73127769543926
H        15.16766634887420   -2.02110576536962   -0.52730765838753
H        13.81784654935828   -1.12204519110724    0.19594563157855
H        15.07984680949631   -0.26671383354208   -0.71029140884385
C        15.27656988745213    0.34905916800956    1.98269357598867
F        16.25151900375336    0.67954301753865    2.89159605181958
F        15.16963555618534    1.40688747337468    1.17689271283363
F        14.13327462478787    0.27254961554224    2.67297300848371

