106
CSD_code = KAXFOF | q = 0 | S = 0 | Stoichiometry = C53H46MoO2P4 | MND = 6
Mo       21.58109362149705    7.28138267057409   12.71105048877881
P        23.53793390874290    7.64407442705303   11.35674475671999
P        22.84370102261077    9.07779784968900   13.57343192548034
P        20.61126722812156    5.46679217498458   11.62588446878072
P        20.01130506575527    8.47178153334925   11.38660016900540
O        23.17853188930701    5.24547387933028   14.36830705710024
O        19.51347355740942    7.34813483308144   14.98236373381625
C        22.63112202461479    6.04518836749092   13.75219046367623
C        20.24289698650298    7.30345989419929   14.09434415024802
C        24.20435446063854    9.09352021944829   12.31766326085338
H        24.23117678041440    9.99923564772484   11.70428215940316
H        25.19550502779664    8.90578201520200   12.74427149241499
C        23.60968696950466    8.23712768744789    9.63892569845134
C        24.67672410631235    8.98535761658445    9.15188527456212
H        25.52349144538442    9.19821712254133    9.79188226894159
C        24.65491518654762    9.44333386636658    7.84830375186931
H        25.47957569410419   10.03069354511794    7.46993978505833
C        23.58008117664481    9.15004716944994    7.02304792719231
H        23.56794935970773    9.51467625133547    6.00628422236831
C        22.52652359853981    8.38790493955101    7.49807692632399
H        21.69276537260167    8.15342903615370    6.85193733548474
C        22.54324880910019    7.93756880157687    8.80444970854397
H        21.72996404957114    7.34568095876250    9.20565517356608
C        24.97857993869737    6.53527316621034   11.37448090986630
C        25.57640919040877    6.24900312975026   12.59978890412112
H        25.20180467819363    6.71475618891156   13.50476693328210
C        26.64051777076247    5.37092866067907   12.66749338847695
H        27.09813841992095    5.15363268306925   13.62173998533592
C        27.11703937446951    4.76866554157447   11.51357321788431
H        27.95057110115547    4.08342847183666   11.56665474851429
C        26.52120227380399    5.04333998514606   10.29441162371239
H        26.88929664998042    4.57311844051659    9.39356309675972
C        25.45048380036383    5.91642924213622   10.22205095395850
H        24.97978402354591    6.11986109968777    9.26978483780963
C        23.73187023439786    8.90033793526569   15.15220527051234
C        23.20636642634688    8.05362320046031   16.11924056108276
H        22.29278320967317    7.51372910464803   15.90503228222443
C        23.85137864318431    7.90475787073089   17.33422551053277
H        23.44416282243114    7.24107888714707   18.08279071736157
C        25.01991546814759    8.60342508661775   17.58769305691555
H        25.52878036370868    8.48158665577536   18.53280274541040
C        25.53580321465312    9.46617667797237   16.63289133028652
H        26.44157293455383   10.01939609712256   16.83723943851637
C        24.89103088486675    9.62267790603195   15.42077256091766
H        25.28356696018095   10.30909798374591   14.68114596623878
C        22.31230696624371   10.80016958746037   13.83750683494225
C        21.13942297559703   10.91624165960025   14.57808269109836
H        20.63041781941209   10.01193587453660   14.89171040805826
C        20.63664356123337   12.16179615022155   14.89803328918891
H        19.72973508266198   12.24524628183887   15.47863860098988
C        21.29583413326619   13.30144031188969   14.46474963401026
H        20.90270448122413   14.27857590730366   14.70526578714377
C        22.46052012923339   13.19091473473026   13.72367507519144
H        22.97304133979909   14.08147672031350   13.38788081426458
C        22.97681396662380   11.94463901098495   13.41528921126286
H        23.89336884019961   11.87291413432871   12.84472817801978
C        18.96277085189529    5.90525465335032   10.93093819641883
H        18.63323626707759    5.16449262537794   10.19226421878739
H        18.28455739008489    5.84190310718505   11.79223372386867
C        18.98029001456427    7.31354012272646   10.35928750813215
H        17.96347247076975    7.71255854664697   10.25853398392703
H        19.44922116706577    7.30125189582083    9.36891700731493
C        21.53870555547040    4.72521175985771   10.25265629644740
C        22.71316885112477    4.08450428086979   10.64272341625504
H        22.96428616822801    4.05401862457018   11.69735838033989
C        23.53194367209999    3.48880023003831    9.70510118060630
H        24.42927536786569    2.97578463993929   10.01914317408708
C        23.20190863460525    3.55602622412774    8.35977558537365
H        23.84419140718842    3.09849158101327    7.62121004795228
C        22.04810260404490    4.20872309981566    7.96251706744284
H        21.79229559902450    4.26337922135099    6.91346923820572
C        21.21132339493334    4.78454888097204    8.90357522879380
H        20.30271786303839    5.27208663109259    8.57646912912005
C        20.14168415632607    3.94063085238738   12.49562594254413
C        19.80469371271255    2.78892511783283   11.78793728042512
H        19.86163227218497    2.78648469017858   10.70697672250052
C        19.41260097548093    1.64956288056918   12.46419589370663
H        19.15427596535817    0.75735088302650   11.91157101111418
C        19.35305986397838    1.64890837920970   13.84913067765643
H        19.04990005605870    0.75515168258931   14.37498441501269
C        19.68500171796683    2.79159208826911   14.55683464587563
H        19.64104821943638    2.79183067335169   15.63620978016300
C        20.07707551630055    3.93485657400903   13.88254015022706
H        20.34213309060552    4.83165187216513   14.42608231801219
C        18.73034919601405    9.40146925699494   12.28466516196172
C        18.79278996978930   10.78532612962647   12.41163387545761
H        19.58149037887135   11.33917727370042   11.92070197993167
C        17.84605373360905   11.45945277458840   13.16143642840385
H        17.89965812014879   12.53569779279326   13.24477912964680
C        16.83758683488538   10.76158092397971   13.80330310191918
H        16.10118587750350   11.29001108783508   14.39128240683787
C        16.77726845968704    9.38177878018077   13.69300357794880
H        15.99695843867034    8.83157058580697   14.19894652720940
C        17.71770145248750    8.70568698185408   12.94001855068274
H        17.67207134994951    7.62714312754612   12.86705593683232
C        20.42880763950816    9.73312194799441   10.13694952437490
C        21.56419743864609   10.49116757389034   10.38959480383811
H        22.10916463416474   10.29255111382164   11.30450517820232
C        21.97901683032511   11.47203810548440    9.51096731223156
H        22.86587046845593   12.05335971035463    9.72063923575970
C        21.25339041189430   11.70250059987294    8.35458584315015
H        21.57643289628980   12.45760529053225    7.65298298428238
C        20.10523958401295   10.96964668152551    8.10442422991354
H        19.52934845811208   11.16225594546686    7.21028447870453
C        19.68476794503771    9.99503659403222    8.99191103449834
H        18.77562203609084    9.44856500852637    8.78753571534767

