49
CSD_code = KAXLAX | q = 0 | S = 0 | Stoichiometry = C24H18N4NiO2 | MND = 6
Ni        4.95195049287623    2.18188073040671    3.76627660708319
O         6.59625857390275    1.02509074951944    3.25366402431066
O         5.51325173670978    3.31410816817850    5.43060859912799
N         2.88504931685581    2.78933925990302    4.23516941514799
N         4.47907541933577    0.75375304819050    4.74404985682176
N         4.12209115961369    1.63173088859082    1.77766508559685
N         5.52150088326654    3.60961498103031    2.83602362780616
C         2.16600055010377    3.87776858685391    4.02813646598928
H         2.51774641182722    4.54193611615535    3.24875621510277
C         1.01419044815379    4.17563063929203    4.74009186970598
H         0.45599328418667    5.07292878306835    4.52581383550002
C         0.59583061048854    3.28973377089008    5.72643079448951
H        -0.29824646583263    3.48911169357132    6.29896952255143
C         1.34360943938370    2.15641937991359    5.96460903725242
H         1.06125511957815    1.45158733790370    6.73134835895295
C         2.49722862962962    1.92939208757678    5.20215500466364
C         3.35520463178331    0.79959306206806    5.39800631395260
H         3.06490033735917    0.03064297059235    6.10640412597580
C         5.41131416137582   -0.24020499537096    4.83091140419190
C         5.33287206610521   -1.39316362991353    5.62921591404970
H         4.46677509941732   -1.57104395108703    6.24997803161384
C         6.36288031286254   -2.29690233765793    5.62511265478307
H         6.30838528262847   -3.18240652524229    6.24020689875792
C         7.49776469968328   -2.07587453726981    4.82931665201911
H         8.29823351954888   -2.80212978618459    4.84820631768187
C         7.60614710556969   -0.96703074824812    4.03830742672419
H         8.47662646366471   -0.79382430142395    3.42420284355741
C         6.55949440976907   -0.00720926068448    3.99942741674798
C         3.50730037149310    0.57344148078395    1.28146958320988
H         3.05033658701295   -0.09418124468530    2.00109288051870
C         3.42308131357320    0.30876593832663   -0.07700005418528
H         2.90113343144068   -0.56520674065506   -0.43255475228464
C         4.01868707044575    1.19807670074866   -0.96406416014950
H         3.96926210312858    1.02568656171925   -2.02932363033688
C         4.67537261350808    2.30100622504888   -0.46131837418290
H         5.16225244628818    3.00763154055764   -1.11563743697246
C         4.71852244664258    2.49364444598752    0.92615280212485
C         5.40465530435738    3.59088637968650    1.54028870564387
H         5.83540107877828    4.36158746127143    0.90940871418025
C         6.15671590038411    4.57639979050891    3.56177782154900
C         6.79840165193824    5.71665285488099    3.05022388814822
H         6.81529641389281    5.90343748553060    1.98629845861035
C         7.41240416372165    6.59620936456710    3.90258627970248
H         7.90976707926517    7.47097895896709    3.51162481682089
C         7.40661606605990    6.36386558986528    5.28692515904026
H         7.90225921171575    7.07084639324244    5.93741699500276
C         6.79001293631515    5.26764838593980    5.81985665157433
H         6.78253114589283    5.08473943589167    6.88353745419753
C         6.12960696429845    4.33201081119360    4.97817387762867

