72
CSD_code = KAXQOQ | q = 0 | S = 0 | Stoichiometry = C24H36BCl2N3PS4Tc | MND = 6
Tc        2.17239019397235    1.60404275286921    3.90474869763717
P         0.27895645660673    0.26837734212435    4.48665619964712
S         4.29256072485729    2.43979697724883    3.04570847471211
S         2.42023145800940    0.81485871231151    1.61367504014780
S         2.83110163945813    2.03007926918375    6.27320566282183
S         3.37957275086383   -0.43000293851560    4.85004994908970
Cl        1.82684892402124    5.02106396712301    1.99751569445011
Cl       -0.61225768196083    3.22571568152642    1.63795474766597
N         1.21955273669731    2.96823419332305    3.49668501837866
N         3.99405825234771    2.60719408633697    0.39927755682513
N         4.43070602836778    0.12843872163373    7.22305749563098
B         0.49116211779071    4.06700314123142    2.90075843705637
C         3.62952972703162    0.52179187829730    6.23184397593910
C         4.63188512934148    0.97658480819561    8.37971722014486
H         4.64823529794444    2.01595490697682    8.03742509911607
H         5.60672372479128    0.73460911986259    8.80897219363822
C         3.53605144922645    0.81545913548537    9.42870690868568
H         3.70819618408991    1.51589024425109   10.24095157129235
H         3.52612344496205   -0.19300763773935    9.83378338686391
H         2.56562843373084    1.02452016207274    8.98643273329930
C         5.07578273283690   -1.16793270451086    7.16933854988597
H         5.97542573516051   -1.12277025588609    7.78649893778288
H         5.37553713110120   -1.35825191810070    6.13359737084926
C         4.16621136869348   -2.29857609394741    7.64126511705077
H         4.68537052945995   -3.24780086626522    7.54071793109273
H         3.26376370405712   -2.32760171575192    7.03628012959092
H         3.88154900819751   -2.16283968884910    8.68109393720528
C         3.62781892936249    2.03664228557224    1.52696067318408
C         3.35432610879020    2.25757885771014   -0.85506290537384
H         3.11866704269106    1.19029617104642   -0.83650214389224
H         4.07544721375612    2.44449125063696   -1.65444000911052
C         2.08055852750652    3.06680919414434   -1.07453155247070
H         1.65401763243912    2.82516310426485   -2.04382584711922
H         2.28787337995175    4.13304050896205   -1.03253472965617
H         1.34729313384214    2.83678446019805   -0.30586745574864
C         4.91899542286205    3.72366894973561    0.40576376151953
H         4.77105875409347    4.29175372067219    1.32838203206511
H         4.66810154151227    4.36959031896176   -0.43658357488047
C         6.36402962950056    3.24640237733384    0.30586637975340
H         7.03284530657160    4.10207652591410    0.29816067445161
H         6.51877281953500    2.67236782407736   -0.60539823635835
H         6.61248275587372    2.61991882492493    1.15893846738116
C        -0.34459530226290    4.97845033910895    3.91888286093366
C        -0.20758458748701    4.78574929000426    5.29141234893244
H         0.47839654319213    4.02229183684565    5.64244985526609
C        -0.92084069483396    5.55551325099991    6.19212246457848
H        -0.79991486947911    5.39334217609124    7.25424892951661
C        -1.78462910399658    6.53574102943299    5.73343750882786
H        -2.34177501511789    7.13985542017772    6.43552756865003
C        -1.92884988029991    6.74008099345996    4.37213478013566
H        -2.59958489708426    7.50524119374513    4.00809058764975
C        -1.21540030426394    5.96683814885995    3.47328700312176
H        -1.33300206739898    6.12713228923363    2.41136678263919
C         0.23164894921225   -0.32700251569065    6.20236001594004
C         0.49298975404592   -1.64497221649659    6.55526803402801
H         0.68768376171841   -2.38340691348905    5.79140240561228
C         0.51145407749527   -2.01367628675783    7.89005062279298
H         0.71347114928657   -3.04033409387594    8.15958734321894
C         0.27747335327276   -1.07148255306455    8.87675295196546
H         0.29618539967330   -1.36239774596527    9.91662899034646
C         0.02598916211150    0.24738823426615    8.53005394404223
H        -0.15198972989350    0.98452257145203    9.29919043664091
C         0.01023651272088    0.62090707418982    7.19968677643036
H        -0.16033896046323    1.65195383376120    6.91985677610082
C        -1.35270372236322    1.05075198474208    4.27907247840834
H        -1.41493641750539    1.94839263385643    4.89117458651331
H        -2.14196075167348    0.35016113558178    4.55166187617275
H        -1.44818349560403    1.34899905221024    3.23455397937293
C         0.12096119438065   -1.21636590233024    3.44298019265605
H        -0.04299925649466   -0.86774095622201    2.42278286903451
H        -0.72256529420365   -1.82467336850362    3.76844637436631
H         1.04167909327224   -1.79757559029764    3.46678508584347

