102
CSD_code = KAXVOX | q = 0 | S = 0 | Stoichiometry = C49H43N5O2S2Zn | MND = 5
Zn        3.34113115799875   19.19879887200125    2.87675843244064
N         3.38081116748044   21.20539149822881    3.23551072777361
N         1.56162441222289   19.05848189614816    3.86733947331476
N         3.49541144283164   17.16287106741343    2.98070076410724
N         5.27462486831682   19.31049369699936    2.25482149080908
N         2.37083806156795   19.34574585158968    0.93086715710006
C         4.35570801479378   22.07694072365790    2.87958900806346
C         3.95023484250653   23.42357326043491    3.18970672238031
C         2.71196288747706   23.33828365995634    3.72895264832096
C         2.36469084796301   21.94211163231261    3.74864659542722
C         1.15561180948070   21.44069533635405    4.20407205555089
C         0.78794520433604   20.10518170406811    4.24639599949249
C        -0.48354126786238   19.62881048964503    4.72262752236968
C        -0.45433252849704   18.27991243281734    4.62498133926718
C         0.84091303118081   17.93465819506978    4.09702951986422
C         1.28343969486148   16.63034768151546    3.88230433735442
C         2.54749679856133   16.28815285860428    3.40069702761577
C         3.03616322207189   14.93818624760539    3.28043882646024
C         4.28666103330373   15.02499220813125    2.76982328927702
C         4.56218468048078   16.42484211892599    2.58370919510938
C         5.74331410530297   16.92649262337739    2.05956509854880
C         6.06123513447616   18.26550983024734    1.89821954479933
C         7.30601920604604   18.74859967825918    1.36079680957112
C         7.25585544885003   20.09966543644440    1.41505130769296
C         5.98028734616762   20.43771989492654    1.99356129494524
C         5.56807465318955   21.73604347324046    2.28356649556220
C         2.20173477324288   20.51091271954559    0.31966802283286
C         1.39932328196008   20.66606029397092   -0.79959343551667
C         0.74163473511616   19.55708056921902   -1.30620406914215
C         0.92203878652519   18.33822299065344   -0.67217304140623
C         1.74525064063649   18.28418327700367    0.43964897120893
C         6.49689465104820   22.83960028422755    1.94166916005650
C         7.48623811038273   23.24739822748835    2.82830804725553
C         8.35415986027346   24.27101594887244    2.49225436808857
C         8.24564481342184   24.90436337601986    1.26497601096318
C         7.26382254576004   24.51492125457970    0.37176141851569
C         6.40311194656697   23.48761608524100    0.71574094294207
C         0.34647614403827   15.52722339190703    4.19754731591122
C         0.06722578391050   15.17615810386253    5.51334579893141
C        -0.79824078732098   14.13514175392738    5.79880675662870
C        -1.40733025595224   13.43174038716906    4.77281605849319
C        -1.15577637737663   13.77542603121000    3.45641062376347
C        -0.28258944285317   14.81232669132033    3.18139293699943
S         5.15967300523877   22.95941815884484   -0.45433867267743
S         0.06969114815868   15.24576447655500    1.48596651632199
O         7.39078041864296   22.01516833995040   -1.44709990952491
O         1.07189100340726   12.83110525768680    1.69051372614578
C         6.20669445505940   22.08893415629323   -1.60756128849691
C         5.40830821733251   21.49789329184134   -2.73357653803676
C         4.68693482552510   20.22319569106972   -2.27766131396664
C         5.64277841972274   19.05556245493420   -2.05626448927650
C         4.89316391073298   17.79759912804131   -1.62322080336398
C         5.81935437499812   16.58598122433423   -1.56090980061208
C         5.11552945319685   15.31115805539039   -1.09628136888784
C         4.11256088211782   14.77353614586061   -2.11647515569452
C         3.63914153318261   13.35284541828221   -1.79986462436617
C         2.94802834598969   13.19903471684321   -0.44627353949904
C         1.64544845405941   13.99252319915610   -0.35087751032104
C         1.00193481555029   13.79933211381630    0.99165844811180
H         4.54183448714332   24.30164736191346    3.01236867703781
H         2.08367727661480   24.13258959537836    4.08454918007325
H         0.43217060256474   22.15929784322841    4.56492487982688
H        -1.27921832527981   20.25437673919285    5.08023224761627
H        -1.22396031968789   17.57739832086241    4.88237125123260
H         2.49475699379295   14.05478555208449    3.56090639062929
H         4.97255088636322   14.22870074564598    2.54965097166733
H         6.49287346551781   16.20449398570543    1.76530140693028
H         8.10431299499727   18.12734253982514    1.00077952873133
H         7.99708337302732   20.80736392707641    1.09573216862790
H         2.73057226795047   21.35330003840172    0.74123654743515
H         1.29660085453903   21.63647626049409   -1.25904545636169
H         0.10270601393321   19.64098446529103   -2.17303000150077
H         0.42573970277384   17.44610612479192   -1.02052289358041
H         1.90530719482565   17.35557924147823    0.96582303569284
H         7.56910267372253   22.74736471861718    3.78194330111298
H         9.12062368981467   24.57442815812347    3.18984385172735
H         8.92487508945003   25.70061727605455    1.00079270907493
H         7.16794888095750   24.99622969004220   -0.58966711970770
H         0.54800226033826   15.72425210768694    6.31018465476195
H        -0.99685529004814   13.87039413560200    6.82675111580302
H        -2.08049600687924   12.61764109906799    4.99445573131344
H        -1.62668211271483   13.24011837314292    2.64629061051379
H         4.67033716948155   22.23204398798006   -3.06124641665301
H         6.08645612293174   21.26797002938469   -3.55778986555297
H         4.14447617380697   20.42996298020829   -1.35255406059769
H         3.95335038157668   19.94901924672813   -3.04008715182236
H         6.37889306454226   19.32087595551187   -1.29515063543867
H         6.18276362879753   18.85221733704928   -2.98454324944193
H         4.44670605322063   17.96326490381010   -0.63939874668672
H         4.08339670030060   17.60704082885500   -2.33160215484121
H         6.63243046816798   16.81237476584353   -0.86895044211543
H         6.26109125008150   16.41681877965337   -2.54634413110735
H         4.61341130945046   15.51689866866386   -0.15001059963119
H         5.87155042618343   14.54254136849116   -0.91661975931988
H         3.25425044537155   15.44338916039663   -2.18104360504467
H         4.58714133783250   14.75759566498764   -3.10105972448392
H         4.50390712286225   12.68552932883136   -1.81732896721532
H         2.95624415656808   13.02546767865385   -2.58810704811001
H         3.61649789480916   13.52285967001277    0.35190430716562
H         2.72403285960734   12.14427839590822   -0.27627497505691
H         1.81788351232645   15.05680887590356   -0.51084605266010
H         0.94015552096434   13.64470849032390   -1.11196175564922

