89
CSD_code = KAXYIS | q = 0 | S = 0 | Stoichiometry = C36H47FeN4P | MND = 5
Fe        4.15262977160037   22.86609468345604    6.82475586582962
P         5.99918251833908   21.83892768314472    6.24216354141856
N         4.46890028404097   24.31420757360142    5.75153500892387
H         4.34970946497973   24.39723653277656    4.74366574687932
C         4.96849191024176   25.42403785327214    6.31410107546490
C         5.33349803865114   26.61069250957068    5.66029111196788
H         5.17734861843942   26.69525272586074    4.59304084989783
C         5.88207488930958   27.64280266256686    6.38165038884818
H         6.16278961595881   28.56042024474073    5.88607985299364
C         6.10014650356309   27.50933592488231    7.75805765555517
H         6.55632114268697   28.32464813003474    8.30089549020960
C         5.75226951766668   26.36039692010305    8.42688356437688
H         5.94736795585995   26.26307008383764    9.48467854512613
C         5.15242272049468   25.29908575745412    7.72657119085860
N         4.79019041017300   24.08955818628739    8.19518788981120
C         4.75539850891910   23.85430676820138    9.55839157883972
C         5.31833416206843   22.69212975735256   10.09410166705540
H         5.81635515170208   22.00870229464210    9.42397008675081
C         5.23806710313844   22.42088844355297   11.44576144875353
H         5.68444689715992   21.51700736871024   11.83651826023426
C         4.59265359503922   23.29980463919246   12.29978483587763
H         4.53156188726127   23.08846271365639   13.35679015544676
C         4.01781613489985   24.44996765503738   11.78126790993292
H         3.49966797046507   25.13535860467734   12.43682231465822
C         4.09367946812147   24.72676616288608   10.43179010548146
H         3.62010119391049   25.61024771887681   10.02857915720484
N         3.41595933091928   21.67649503062235    7.98848998871644
H         3.51581792557868   21.65300645628978    9.00295538221859
C         2.65219385290760   20.68301437460331    7.51294434788930
C         2.06891615231187   19.63926792180358    8.24581528805127
H         2.22681175808186   19.59177761287997    9.31512603991584
C         1.30432775824086   18.70014717251608    7.59800051921150
H         0.85751588351093   17.88835708016622    8.15270398995493
C         1.08439906011377   18.79543445769542    6.21891579477724
H         0.46023670711919   18.05923449992680    5.73320033930420
C         1.63567443779602   19.81100748257692    5.47528311945271
H         1.42707870046706   19.88738894907276    4.41812568992045
C         2.45038840558561   20.77103307871400    6.10120310877149
N         3.02790301061193   21.86044789185094    5.56381669065634
C         2.93229937279780   22.07828970397782    4.19344722250586
C         2.42163727503433   23.29036553456506    3.72476674462329
H         2.05987762685485   24.00619070517900    4.44809030546298
C         2.36287527583830   23.55460170404054    2.37005755987339
H         1.96270314873380   24.49717396517230    2.02458641922952
C         2.80400434257824   22.61388083239993    1.45320904508771
H         2.75604490907523   22.82049556533349    0.39448151892715
C         3.30112035896003   21.40187511817000    1.90413843305811
H         3.64181285332175   20.66132335394559    1.19464711173321
C         3.36755033849058   21.13362589373387    3.25808418580219
H         3.76662137052908   20.19108073299650    3.60665064366038
C         7.62012242027565   22.19996000704245    7.07222965657964
H         7.45999435731535   22.09430316532338    8.14712620120074
H         8.36826395033430   21.45875662847770    6.77520876472366
C         8.09832741161341   23.62159254545102    6.78187452029922
H         8.57981070262593   23.66166747836917    5.80257172071766
H         7.23520960037499   24.29017156579325    6.75747475795930
C         9.07562884819029   24.13098751224064    7.83884591331831
H         9.94804125657679   23.47350738177007    7.88132217235592
H         8.58867334301434   24.10519298734241    8.81618988449235
C         9.52091257412411   25.55673938239443    7.53856626072839
H        10.20220355641313   25.91592042829608    8.30608536750393
H         8.65809378528798   26.21847892301888    7.50352707080072
H        10.02973180175556   25.60513382688903    6.57803442359729
C         5.97456330189475   19.98738140762638    6.31169370361711
H         5.07718427423470   19.67528644406988    5.76868693882264
H         6.84949155523382   19.58429549834169    5.79554590685264
C         5.90941487854374   19.44981722109892    7.73866451326887
H         6.88014297766943   19.57033538602907    8.22554980619331
H         5.17428006756854   20.02604521839538    8.30164629611751
C         5.50637367194936   17.97686747726797    7.77220836247843
H         4.53004944288149   17.86533398175744    7.29496115300371
H         6.22858087103114   17.38611429373288    7.20294310284902
C         5.42978594622443   17.45036075744106    9.19978799690904
H         5.13977800308295   16.40260835203274    9.20676140798622
H         4.69410191681191   18.01334589705277    9.76919849239301
H         6.39361812118541   17.54360642823725    9.69607943691753
C         6.43066648903018   22.14860238739186    4.46482929700489
H         5.51232678528650   21.97764055972235    3.90012206309896
H         6.64811544949275   23.21928698154495    4.40629449561538
C         7.58126158580098   21.35643435978013    3.84723299126921
H         8.44769704061886   21.37461334731653    4.51125272390129
H         7.28456166038914   20.31579704089067    3.70604415490752
C         8.00298723898618   21.92944815235686    2.49169844195494
H         8.25691804726225   22.98550059914339    2.60871109041000
H         8.90493564125790   21.40844520565862    2.16062966215612
C         6.92798154098090   21.78160347317811    1.42170633843916
H         7.30159976685718   22.13200711761520    0.46233766897504
H         6.04092185184536   22.35755770133171    1.67191207312287
H         6.64035297576381   20.73792816184909    1.31557038024509

