68
CSD_code = KAXYUE | q = 0 | S = 0 | Stoichiometry = C31H31FeN5 | MND = 5
Fe       12.83227110863765    7.55402971181500    9.50898461064942
N        12.95452732287234    8.97290011329119   10.68905877631952
H        12.89924114843339    9.97051448808890   10.48697195493310
C        13.26952869396985    8.70864736803234   11.96495649888804
C        13.52346754268023    9.64007645053123   12.98349394370099
H        13.47985672854823   10.69663626565515   12.75537096971130
C        13.81167680544138    9.19803993958624   14.25137686583541
H        14.00997816714449    9.90896613124321   15.03992471475101
C        13.83538350566003    7.82808873189668   14.53875545115716
H        14.04221682174811    7.50506861945599   15.54867629400072
C        13.59147767714875    6.89045415151471   13.56451212663567
H        13.58603271768619    5.83800975265112   13.80767062498156
C        13.32255972849494    7.30639769404306   12.24864065358707
N        13.02133416136900    6.54690580180608   11.17717083806265
C        13.09313637627616    5.15837503935523   11.27387809715926
C        14.26145589280967    4.50836459454118   11.67850197837052
H        15.12022718784084    5.09969201079193   11.95849110446765
C        14.32365055687616    3.12902476317643   11.70951508415131
H        15.23768630634055    2.64235506599630   12.01894067405897
C        13.22317910364385    2.36923920661280   11.34726298711735
H        13.27448455097046    1.29095875245109   11.37428860248146
C        12.05514582815731    3.00291537533686   10.95551037986495
H        11.18961703075113    2.41665412180197   10.68116464113066
C        11.98761543671511    4.38243251185744   10.91926629199091
H        11.07642620299148    4.88544896140874   10.62867078347719
N        12.30974065971293    6.14005928101294    8.43861195421952
H        12.41985154435396    5.13974325164772    8.59880488785034
C        11.74759300094756    6.42400789146243    7.25676398748316
C        11.29101366090334    5.50661165668549    6.29566401474230
H        11.36331697119111    4.44694950652046    6.50084262078391
C        10.75810232398357    5.96708384417181    5.11781986525831
H        10.39762793551467    5.26826788296523    4.37732480913647
C        10.69023639897164    7.34173477297350    4.85544194319066
H        10.28725978309464    7.67802905145925    3.91121526695623
C        11.13132243328456    8.26463969365133    5.77170376566435
H        11.08990413305924    9.32081682181596    5.54915949650214
C        11.64353624295113    7.82956139755012    7.00695508125980
N        12.13832418430108    8.57306395996778    8.01445638069389
C        12.08650760363621    9.95939424406234    7.96010165143884
C        13.25293635990718   10.70533917600233    8.15270295051568
H        14.18102333089656   10.17079335153951    8.29333136378241
C        13.21289471989454   12.08580037198389    8.15746517571289
H        14.12472787316994   12.64771716640990    8.30331164765143
C        12.01237790199196   12.75276127701866    7.97253887023883
H        11.98293509123402   13.83210094880645    7.97550852739054
C        10.84857944974495   12.02331951002386    7.78819903685913
H         9.90711003545959   12.53606537255724    7.65205461215405
C        10.87968514506362   10.64289145817986    7.78177344791201
H         9.96797710567535   10.07573314188975    7.65999307355754
N        15.75736281902793    7.79537288928146    9.02645857806907
C        14.60585405713436    7.61775737848162    9.12712844575566
C        17.14099018030807    7.99324660977919    9.13465699015934
H        17.44195854312568    8.66916105258849    8.32197046382814
C        17.44791621252496    8.64299859060051   10.49224580189276
H        18.51179182696955    8.88725750206555   10.52165220626361
H        16.87894218333887    9.56960262308813   10.58979154469761
C        17.09768710065383    7.69580265432718   11.63563822271732
H        17.34283511837592    8.16719042999113   12.58895567111670
H        16.02097645213135    7.50814246038268   11.62784766509199
C        17.85621046299315    6.37969063793659   11.48857458358488
H        17.59033954042531    5.70623677757644   12.30539190688845
H        18.93091015642188    6.56987432720211   11.55209289643204
C        17.53470101677171    5.72374393317495   10.14823264052908
H        18.09273807223142    4.79132191213078   10.04455646648132
H        16.46985158794885    5.48590209959477   10.10079060537211
C        17.88515083371230    6.65898922753148    8.99535974095636
H        18.95757546513667    6.86481471903340    8.99352765974115
H        17.62464787860657    6.19401352194441    8.04252853196993

