214
CSD_code = KAXZUF | q = 0 | S = 0 | Stoichiometry = C84H123FeN3O3 | MND = 6
Fe        4.56405627126425   18.87814046435244   -3.25804310324500
O         4.76126024922754   20.49150255566697   -2.28518104579710
C         5.11953866652752   20.38482201083030   -1.05463484065594
C         5.24550438706919   21.45245410661768   -0.13096874890921
C         5.60336852011086   21.13065393799527    1.15758369676927
H         5.68861849533650   21.92366954106456    1.88074012413381
C         5.87536382996869   19.81649484119668    1.59219586621700
C         5.75058312411121   18.77973519521896    0.69798060072690
H         5.96111999232912   17.75994691897298    0.97359781755874
C         5.36249942803046   19.04528128116775   -0.62612141496310
N         5.22980889774129   18.16988385624061   -1.63639427323666
C         5.26631226439264   16.81082852517913   -1.34056972621693
C         4.37389723301117   16.26642103415720   -0.42418979790296
H         3.63672784541733   16.92484841394650    0.00676706763265
C         4.44224218196900   14.92481198991607   -0.07396447487835
C         5.40821953734018   14.13842136204703   -0.68887549329260
H         5.47104865542961   13.09300926637261   -0.44053033519084
C         6.31813598153863   14.65951537895190   -1.60922837098292
C         6.23734540785572   16.00343046701630   -1.92974640168679
H         6.92746823561697   16.47249361730267   -2.60918567298975
C         4.96235422174639   22.86899086264517   -0.60266518647937
C         5.15092493057774   23.91407105170909    0.49999130825718
H         6.17112971140515   23.90553843996435    0.87715612478659
H         4.46306824352775   23.74277899385345    1.32504467585974
H         4.95010520154271   24.90428236623439    0.09545736482718
C         5.92074345070376   23.19556182762350   -1.75572308459316
H         6.95116579858907   23.18412408100063   -1.40515594558440
H         5.70197568776145   24.18302640198424   -2.15943557906206
H         5.81677132472837   22.45380026639189   -2.54240463786523
C         3.51130112096127   22.94031529172443   -1.10070849215126
H         3.28705793016463   23.94012339873907   -1.46882358452607
H         2.82280479156239   22.70761223818441   -0.29047129420817
H         3.34897124246259   22.22698820571939   -1.90393564054427
C         6.29421814601323   19.60677908557766    3.04010231516092
C         5.15686841617961   20.06979386854302    3.96197866502801
H         5.42829498095857   19.90875403569123    5.00335541017377
H         4.25040843829546   19.50701799363582    3.74955609745980
H         4.94074809417805   21.12558039381430    3.82572481357672
C         7.56179816189409   20.42435741057399    3.32666305990256
H         7.88766867623086   20.26287535120799    4.35230637415791
H         7.39076570848944   21.48802197677667    3.18911280133562
H         8.36243092424615   20.11859374123431    2.65675472781648
C         6.59734064568280   18.14009372356356    3.35836504180198
H         6.90606975376013   18.05048783164770    4.39819182586995
H         7.40367258743340   17.76439905543888    2.73313926055220
H         5.71763657884613   17.51842101908771    3.21459509485341
C         3.53062177157153   14.40404117805886    1.02973037689523
C         3.65886415741323   12.89370765775873    1.24841237169759
H         2.96166862362964   12.58035828905751    2.02309557451989
H         4.66126450502373   12.62787550192626    1.57597629423655
H         3.42189391637518   12.34347565376492    0.34079254603922
C         3.93132411434855   15.11501983322864    2.33175120327448
H         3.33233827898448   14.74743835841752    3.16267320225690
H         3.77952521472466   16.18810148369239    2.24787006358435
H         4.98065706160326   14.93111809546356    2.55530429062205
C         2.06421575145427   14.71946073490795    0.71185302388586
H         1.42742407837891   14.39180193737413    1.53163374247096
H         1.75332796954125   14.20058999205549   -0.19084164757070
H         1.90799101824514   15.78341510657702    0.56330435279418
C         7.37345444304425   13.74732147860048   -2.21966598663887
C         8.09821688888950   12.96641727842341   -1.11370461829972
H         8.91030572512971   12.38249855103902   -1.54218213777246
H         7.43158078355575   12.28081527964703   -0.59867704426714
H         8.51730435352024   13.65351091256060   -0.38182290361996
C         6.67331738580560   12.76855799085049   -3.17122292706379
H         7.39865032181357   12.09304330896257   -3.62133585605003
H         6.17120773604760   13.32053038623626   -3.96373813892676
H         5.93525607291448   12.17192934297557   -2.64052016866093
C         8.42879866430146   14.52811393141833   -3.00828250064989
H         9.18418627439157   13.84024142320480   -3.38449443754075
H         8.92421516239863   15.25572511352351   -2.36936208514048
H         7.98984027194551   15.04387257910448   -3.85830423050215
O         6.27062108673421   19.00083628705105   -4.05243509392347
C         6.60020208703472   17.97368648909090   -4.75581591160439
C         7.84326226901613   17.78502848322617   -5.41156539827075
C         7.97781841775086   16.66041852244100   -6.19532186476015
H         8.91612755441709   16.49474180784293   -6.69721169407562
C         6.95942414014884   15.70280275018072   -6.38794684756473
C         5.76790561809372   15.86047848512122   -5.71593564735544
H         4.95575134431349   15.15833864804535   -5.81084487411268
C         5.58370338615423   16.97602724428901   -4.88310692438821
N         4.47132283581502   17.32448479470362   -4.21112501778552
C         3.28019944365069   16.61269988076594   -4.40988816323948
C         3.07111071902592   15.34308423266102   -3.88504104932177
H         3.85858931918923   14.90396900902004   -3.29570519184624
C         1.86711027147420   14.68892071102219   -4.11348170551013
C         0.88715867549126   15.33531242458418   -4.85898844409625
H        -0.05374216325318   14.83472719427734   -5.02167881146565
C         1.07737946913319   16.59868419057010   -5.40591342105569
C         2.28850998086325   17.22380238173953   -5.17199499953985
H         2.49445024395987   18.19888931092136   -5.57224752396450
C         8.96114089418692   18.78440008481512   -5.16460158471675
C         9.27151320938368   18.77661762949030   -3.66014345774015
H         8.38776949294853   19.06206574971058   -3.09556356149927
H        10.06929392578359   19.48204125067946   -3.43678307587133
H         9.58801537236145   17.78406339190025   -3.34308406851203
C        10.24171669835712   18.44311081182207   -5.93135224290531
H        10.99941603207377   19.19383957129085   -5.71644874501540
H        10.06711834903042   18.44095360559074   -7.00525160544116
H        10.63527909149960   17.47460349881872   -5.63019262702426
C         8.50143148776926   20.18880651752787   -5.57636885043594
H         7.60115028956897   20.46350719786047   -5.03598883384866
H         8.28731161741883   20.22550707185796   -6.64137181138058
H         9.28223845102720   20.91318794960601   -5.35172111829161
C         7.23077625587209   14.53249185139015   -7.32356515702442
C         6.01584762466397   13.61253716582330   -7.47500963776585
H         6.25338135208989   12.80895947582537   -8.16931562714944
H         5.16026465361357   14.15686634368932   -7.86816509577981
H         5.74276586884436   13.16197392463447   -6.52375368419437
C         7.59706107813235   15.06461304364351   -8.71669171690189
H         7.78779722477055   14.23400965482810   -9.39344653824444
H         8.48687007208657   15.68661303476110   -8.68558575438647
H         6.78017143019739   15.65705027962034   -9.11992829367721
C         8.39653538074662   13.69798399778304   -6.77421364894906
H         8.61176885521267   12.87034881829054   -7.44724204540261
H         8.14102889212631   13.29244440884132   -5.79916722872198
H         9.29782464304909   14.29563828124370   -6.67054343813833
C         1.58353632015040   13.28252258650554   -3.60500212537344
C         0.32171208262806   13.30587098887919   -2.73081193750726
H        -0.56380482686956   13.53053010658605   -3.31874001783787
H         0.41300978207712   14.06527625531895   -1.95792559349537
H         0.17306838051166   12.33788749350392   -2.25621997544858
C         1.36103693995622   12.35361662622242   -4.80822611100497
H         0.51904730728597   12.67979810484954   -5.41235123311045
H         1.16350228350420   11.33948879062385   -4.46674427635591
H         2.24622640687074   12.33840493694493   -5.44081110303593
C         2.74219521883972   12.71684264226587   -2.78210080618074
H         2.47640820802235   11.72979230899746   -2.40665560693817
H         2.97282859692248   13.35829429092056   -1.93632171012612
H         3.63385503746979   12.61432905268348   -3.39520512710336
C        -0.02272793338712   17.25402636365769   -6.22922751281413
C        -1.19326861654284   17.60182506095413   -5.30046617617089
H        -2.01524762904074   18.02640208723637   -5.87391098435788
H        -0.87236654645238   18.33401982384558   -4.56229821341492
H        -1.55745093510322   16.71821132559557   -4.78171316068270
C         0.44357329982975   18.54561334470150   -6.90802153645580
H        -0.36585255942993   18.94555983667350   -7.51667598117854
H         1.29408045558994   18.35940216943879   -7.56034218852405
H         0.71538136701747   19.30035391874985   -6.17349929010785
C        -0.49418802098822   16.28619778932576   -7.32454502105394
H        -1.22686383429164   16.77400870868449   -7.96423375161782
H        -0.95737090633838   15.39853575933152   -6.90352591704381
H         0.34743820786087   15.97454526265533   -7.93959709548330
O         2.81763052825738   18.70683828676517   -2.58027469611784
C         2.02721105953199   19.62037674606684   -3.02936955646484
C         0.71818984414133   19.87336120936659   -2.55226121288533
C         0.00096821375596   20.86759791468206   -3.17990974071874
H        -0.99253040132220   21.08572229911538   -2.82639378873675
C         0.48721012630855   21.62420151330844   -4.26594673949451
C         1.76068689444823   21.38353430423090   -4.72821349706472
H         2.18212942254094   21.92372647176050   -5.55956507472137
C         2.54460452324564   20.39436324036438   -4.11449708141271
N         3.75365976454460   19.95245394736051   -4.50224038618179
C         4.42514346961644   20.51322624574595   -5.58396953571787
C         4.70677271725077   19.70114776304533   -6.68216602442510
H         4.38134880262252   18.67639591925312   -6.64665544715088
C         5.36988798975707   20.20827845325296   -7.78383948241054
C         5.78498258089181   21.53846693090950   -7.74787288363357
H         6.32349429947197   21.93056038184648   -8.59327407564523
C         5.53215877605081   22.36547209866229   -6.66188593931068
C         4.83719395161727   21.83866285569873   -5.58011368505617
H         4.62863996259211   22.42579548729886   -4.70055757138648
C         0.21448245714384   19.09230210145209   -1.34893351181079
C         0.26379080235317   17.58726939782660   -1.64794196818009
H        -0.04427608084126   17.02379869939469   -0.76869470385739
H         1.26992346408663   17.28773479593987   -1.92553393798429
H        -0.40567813027110   17.33812450604477   -2.46728207898357
C        -1.21946181769933   19.46275091577582   -0.96022943608109
H        -1.52654803122338   18.86440943067468   -0.10473649768611
H        -1.91009841330592   19.26134942454253   -1.77640553242664
H        -1.29312261618483   20.51098120982516   -0.67932301930968
C         1.14161566266271   19.40717010088506   -0.16493641908236
H         0.82940767188613   18.85205309537467    0.71813938454896
H         1.11358595872747   20.47042493793196    0.06612679008806
H         2.16591684881904   19.13714769066623   -0.40801471938966
C        -0.42274712761691   22.67480152995852   -4.88429858733895
C         0.24348612418613   23.41443140689009   -6.04797505293946
H         0.50849532827065   22.72696855829674   -6.84781591828500
H         1.13792688506566   23.93673396176494   -5.71735691549693
H        -0.44724436205455   24.15176232256185   -6.45253708391623
C        -1.69029426555120   21.99115347676107   -5.41670162602135
H        -1.42644334334850   21.24590530235428   -6.16372827734520
H        -2.34758327214802   22.72601371997047   -5.87710626651342
H        -2.23885666387653   21.49532076276470   -4.62094632149092
C        -0.79747700720545   23.71054343963022   -3.81473478121633
H        -1.41969104655460   24.49024595968692   -4.24943054633280
H         0.10104733722952   24.17015504795931   -3.40892902359001
H        -1.34644219808332   23.25603048185381   -2.99507682786870
C         5.65227538862492   19.35749075332200   -9.01450019609310
C         5.17591027009921   20.09493997584005  -10.27471287669319
H         5.30345210633210   19.45978903004306  -11.14905452361157
H         5.73736431772187   21.00940400426114  -10.44205578620801
H         4.12223028052431   20.35100023147831  -10.18553648862897
C         7.16108966030261   19.09561606159689   -9.10355048739477
H         7.49132409216621   18.54251235959027   -8.22680530743283
H         7.71655572688775   20.02891851371393   -9.15868176289349
H         7.38961508092847   18.50875043910652   -9.99137443336536
C         4.93290667450884   18.00620325074260   -8.96155142355281
H         5.29127284588633   17.40290159960832   -8.13057476946501
H         5.12135882911280   17.45992402575875   -9.88449407424490
H         3.85763398092199   18.14181299506583   -8.86590707981067
C         5.99482340232337   23.81435401116275   -6.60741929214617
C         7.06559590438252   23.93808667515181   -5.51539460904106
H         6.67883613452446   23.62280769471374   -4.55135952046050
H         7.40324835545801   24.96949355510727   -5.43336949962025
H         7.92015901133863   23.31062318269343   -5.75808906760917
C         4.80101912844518   24.72030433563324   -6.27318001230514
H         4.01343526239701   24.59423092178008   -7.01386557914549
H         5.11103681600860   25.76340314103044   -6.27534034951522
H         4.39116897709955   24.49324412447577   -5.29355825295799
C         6.59577237279063   24.29725566681633   -7.93073351268279
H         5.87877174485098   24.20264295758959   -8.74343276934301
H         7.49599668662411   23.74082988668501   -8.18038084749876
H         6.86883471472941   25.34703809181818   -7.84239304494606

