66
CSD_code = KAYBIV | q = 0 | S = 0 | Stoichiometry = C24H38N2SiZr | MND = 13
Zr       -0.22272630220971    1.45051342347619    5.56124867252655
Si        0.45995819364158   -1.93947240908509    5.38192188451480
N         1.05828028131787    1.97691393373244    3.71026597516234
N         1.87361687053155   -0.64661095550402    2.18960824587039
C         0.99738345922751    0.71665633522331    3.91834460111129
C         1.77306283975318   -0.42765079390791    3.43871046292482
C         2.12745176927343   -1.26212026399646    4.63115991446067
C        -0.19490826160574   -0.61152334153846    6.53068829530472
C        -0.81336425877057   -2.30441665138119    3.99528372635286
C         0.93299635652565   -3.64098888349395    6.14867347308683
C         1.93803611868208    2.65851672039784    2.73899191560233
C         3.40197923865974    2.23112525050118    2.87700865883890
C         1.42014697371887    2.31839218240074    1.33639836727552
C         1.80483544598953    4.16515053876918    2.99223284249392
C         2.50682279645998   -1.76007090214080    1.51597254121011
C         2.30837860003064   -1.47459675456607    0.01799179534113
C         1.86608695691105   -3.11536332903692    1.83922638427123
C         4.01643852165283   -1.80537474623965    1.80342844762917
C        -2.02027093575929    1.23567174578562    3.75226864798830
C        -1.85204729803674    2.62167117625027    3.93838502160090
C        -2.27198605967876    2.94301063334148    5.24195748173833
C        -2.68778041133817    1.75193010302779    5.87610412261753
C        -2.54025864874787    0.69623526520021    4.94695148445122
C         1.59472879532978    1.82449257599059    7.37817754764587
C         1.75825962976047    2.83863824192298    6.41911455424301
C         0.61328859111585    3.66363282488739    6.45082485367422
C        -0.24342929619763    3.17052216997384    7.45899815085434
C         0.35468174655045    2.03124780665678    8.02371230508665
H         2.83192392891625   -2.05405230375508    4.39734889537384
H         2.58008392742887   -0.61054268365440    5.38732473396229
H        -1.20753004061203   -0.87154590690763    6.87307719333060
H         0.43233488507506   -0.60441766706177    7.43176371956441
H        -0.81598851589944   -1.51357875476885    3.25057701470392
H        -1.81524782650062   -2.38291616466306    4.40519378631108
H        -0.60486871260595   -3.24166481176880    3.49105865577067
H         1.68504135997259   -3.52952451311348    6.92365997579142
H         1.32234374260303   -4.33779811406876    5.41228634557520
H         0.06426263901105   -4.10388215269054    6.60447909527587
H         3.51545081902115    1.18657883303081    2.60550316367615
H         4.02529197402041    2.83273359691395    2.21915415331785
H         3.74890838176113    2.36444553888986    3.90091695487001
H         1.45681041390343    1.23943129555295    1.19827983706185
H         0.39029723573539    2.65322531053889    1.22657407807572
H         2.03088964102795    2.80667400038093    0.58018309797103
H         2.26622394458805    4.44228039097626    3.93737852167084
H         0.75295738535460    4.44479622132022    3.02285627040029
H         2.29077185948615    4.72430067904942    2.19574091056303
H         2.78282362999722   -0.53350842589295   -0.24808075247505
H         1.24743280434712   -1.39652725010041   -0.20457948205020
H         2.73908750932067   -2.26945731138425   -0.58586826058237
H         2.34674986106171   -3.89456994627345    1.25102558904184
H         0.80995462905632   -3.08985441369102    1.58383728642512
H         1.96222492517682   -3.36445725497723    2.89111325057532
H         4.22102660348618   -2.03891093164729    2.84461356210913
H         4.48645258737286   -2.56417422953406    1.18178339378495
H         4.46841455507673   -0.84244687112199    1.57317222940188
H        -1.88468743961876    0.70378295548614    2.81950914465692
H        -1.57801318976003    3.33308526088469    3.17007145398472
H        -2.39342562498803    3.94690069822787    5.63058781824664
H        -3.17974038497908    1.68116256131885    6.84090572275405
H        -2.90676053089053   -0.31355734028710    5.07557284483250
H         2.34645268768776    1.09814662312589    7.66366956718823
H         2.66393322589527    3.02497738129227    5.85715461029158
H         0.48725769582176    4.59536959314848    5.91143097269120
H        -1.13068198175906    3.66289126633667    7.83776996183492
H        -0.00522031737916    1.49487294424078    8.89330431014464

