51
CSD_code = KAYBER | q = 0 | S = 0 | Stoichiometry = C19H29NSiZr | MND = 13
Zr        1.86291950487843    3.48803703685134   -0.02473815286432
Si        3.79039413001643    6.12409687583851   -0.52464931575944
N         1.31893249276716    5.03703361249021    2.22811330360577
C         2.33129663119941    4.96951001320706    1.46632414373899
C         3.59308228549908    5.78068910350802    1.37753697934179
C         3.46073129694241    4.44656590500101   -1.31018585477072
C         2.44181283213044    7.41591893059773   -0.96705766075129
C         5.49360344620582    6.96832904382916   -0.80442329954190
C         1.07799716832392    5.94907802644376    3.35561853193012
C         0.91489947460417    7.39265317885257    2.86367746760046
C        -0.24758372757405    5.48039076333540    3.97262778724720
C         2.18107382271671    5.85268195935632    4.41695770679569
C        -0.23237871196235    4.81600818993905   -0.45742673483448
C         0.33943692196956    4.56676680253363   -1.72281502443610
C         0.25773761727913    3.17749717715316   -1.97142151080800
C        -0.37982399845533    2.57814386466074   -0.86674938727945
C        -0.66380488081122    3.58370665706648    0.07829219547756
C         3.75035662236736    2.11121503894144    1.03103996656653
C         2.65586723912771    2.04696143598792    1.91786288018534
C         1.61398106457146    1.34728994294401    1.27563708486754
C         2.06910413550313    0.97101533016447   -0.00757043197548
C         3.38685517416342    1.44753672171283   -0.16014865345444
H         3.61923833930881    6.67903904076589    1.99732688669540
H         4.42206076476241    5.13943383515866    1.69135392914514
H         4.38183858126658    3.84572929990638   -1.28699866620791
H         3.17801799075284    4.54409057151140   -2.36822679054720
H         2.67789471908088    8.39170951963137   -0.55371450532618
H         1.47691690059634    7.11110444382929   -0.57167543031630
H         2.34329114387449    7.53824156467390   -2.04074250852016
H         5.60924620443081    7.25563555433817   -1.84391011475422
H         6.31184450542202    6.29923007840821   -0.55828047877008
H         5.60964182212669    7.86423955179942   -0.20274060217160
H         0.65432069256229    8.04296168186768    3.69649672545324
H         0.11924400640124    7.44176396328912    2.12277878628668
H         1.82797945035505    7.76233543946238    2.40625079967886
H        -1.03433036649533    5.51233367660192    3.22272489937766
H        -0.53170988602032    6.11405712560702    4.80966024117774
H        -0.15022643719751    4.45543738485021    4.32287368972277
H         1.89478846025813    6.41650992337864    5.30264290239944
H         3.12501605739011    6.24406465737866    4.04993782646114
H         2.32882617365429    4.81212825926320    4.70041474834162
H        -0.43001964616727    5.78920202952838   -0.02680242162402
H         0.65283799532316    5.31995875944632   -2.43471410293476
H         0.50534986494334    2.68649483690156   -2.90678384345512
H        -0.71420262537086    1.54934930957586   -0.80988850837104
H        -1.23258242298094    3.45762272921759    0.99216758760019
H         4.73399310806708    2.50103390830198    1.26353872879491
H         2.65708761224928    2.37069210940694    2.95150147779584
H         0.68393068372682    1.03687453400578    1.73917087594256
H         1.56206982330594    0.30421207428305   -0.69559472423796
H         4.05004594291156    1.21508852719478   -0.98566942851871

