70
CSD_code = KAYBOB | q = 0 | S = 0 | Stoichiometry = C28H39N2Y | MND = 9
Y        -0.33251770353668    3.59194801781953    2.05307761724697
N        -1.63867309881173    2.44915085829343   -0.23679626051913
N         0.65150857439287    1.97398966179431    4.16991046072937
C        -2.27854340090925    2.50720959077922    2.61654141408593
C        -2.84218940424164    1.56003299900145    1.73640448775644
C        -4.03267592987162    0.89981359793169    2.01183490509237
C        -4.71751045408696    1.14764649470057    3.18768935449560
C        -4.20393159613030    2.07022632903877    4.07903323400987
C        -3.01690302166142    2.72911139106419    3.79040386894487
C        -2.12130164395269    1.23638024815633    0.44358205391255
C        -0.83931475698937    2.06947223304529   -1.39683236250206
C        -2.78944083980095    3.22932821023122   -0.69010117538865
C         1.73712838721170    2.71803130095868    1.55666554159268
C         2.54242540130267    2.14733933336336    2.56546037971466
C         3.78215126477919    1.58018566030220    2.29753404163095
C         4.28975912413275    1.56878541867604    1.01145800925006
C         3.54708573926174    2.13934386250056   -0.00427082356789
C         2.30437862229075    2.69147181594110    0.27139136293478
C         2.09228267120155    2.20534377020497    4.01305032607307
C         0.23093547678164    2.30857785164087    5.52532082086327
C         0.35884934270903    0.56518077640510    3.91192311394377
C         0.61278606395221    5.98167701422451    3.06119777470949
C         0.86028616903294    6.05813232149460    1.66710756185088
C        -0.39020611271171    6.10263344173407    0.99610555437033
C        -1.41641891188627    6.05413895333290    1.97801070973768
C        -0.79116431116790    5.97749459166863    3.25842066644037
C         1.65832785792451    6.10579810428096    4.13358335977778
C         2.20999445873577    6.23868399679859    1.03281404416829
C        -0.55284473966552    6.36200723006465   -0.47854166518062
C        -2.89229380457852    6.26155875174547    1.76404899759399
C        -1.48875583000832    6.14690694449489    4.58077339016491
H        -4.42972819951200    0.18364615343251    1.30293737488888
H        -5.64234022875903    0.63042745726839    3.40056719164150
H        -4.72939958495046    2.28076636125560    5.00119908086080
H        -2.65794410839309    3.44967153964435    4.52054189001683
H         4.36231991551732    1.14910732932560    3.10428826813598
H         5.25523983680757    1.12723824167646    0.80886717961652
H         3.93487467189751    2.15641586892326   -1.01419063343712
H         1.76780926499803    3.14285341804149   -0.55983261001298
H        -1.24825985748123    0.60738898152775    0.66484385003621
H        -2.78854623490724    0.66548586239681   -0.22479075209157
H        -1.42317734480286    1.47406407124333   -2.11524169660763
H         0.02152576946810    1.48285747699690   -1.07696707285127
H        -0.48673995685373    2.96699465882753   -1.90482754376738
H        -3.41077942738288    3.49310134565970    0.16464466618269
H        -2.44344164657262    4.14067874270360   -1.17484928719618
H        -3.40164488351600    2.66130491331744   -1.40658133552330
H         2.66612974721162    1.47847044288952    4.61366597927778
H         2.31525710467226    3.20558099010393    4.40383089678575
H         0.77310350316020    1.71837339828841    6.27979850070176
H         0.41201502774548    3.36625354494680    5.71636201549760
H        -0.83475132223969    2.10778616833989    5.62977844460964
H         0.73181293806933    0.29357926723596    2.92436094795365
H         0.83737325039221   -0.08619284385393    4.65824434319328
H        -0.71884687567376    0.40364018297477    3.94131922544419
H         2.58890063176460    5.62295531517708    3.83400428987485
H         1.88199758157014    7.15851217084532    4.32548074651803
H         1.32115667449504    5.66743674753438    5.07330445416472
H         2.16380091511156    6.06147973253911   -0.03963516140865
H         2.57085510633202    7.25826779901034    1.19031968123892
H         2.94717845128967    5.55608405259631    1.45805327245971
H        -0.04104867853272    5.60979509481450   -1.08511401885312
H        -1.60352364952608    6.37487168610560   -0.76187916492373
H        -0.13033989989328    7.33532018870026   -0.73741004006280
H        -3.48711784797628    5.52197067052567    2.30445026109773
H        -3.15209154058790    6.19650200918965    0.70926341049195
H        -3.18983690561174    7.25114334095791    2.11926137850106
H        -1.05415370902888    5.51235941220973    5.35572132167456
H        -2.54825366035554    5.91308860132134    4.49622040408145
H        -1.40409842167799    7.18251883355243    4.92108947784519

