133
CSD_code = KAYCET | q = 0 | S = 0 | Stoichiometry = C96H32P2PdS2 | MND = 4
Pd       12.85964925116962   13.59281197698207    5.50640307627187
S        18.58907355371033   14.84094761812395    4.08311358368466
S        13.28584378644400   15.74235387940689    0.59295849456472
P        14.46415247817357   15.25762155876337    5.41256654565030
P        13.65474775725424   12.67242453273182    3.56555145285899
C        11.73668934921125   13.89911432801178    7.15279526415464
C        11.20428505654364   12.80130712991877    6.33269593715244
C        11.06964331152490   11.48411200292451    6.95212186503556
C        11.50981594367948   11.23807264711469    8.24275130527943
C        12.03720929440410   12.32237513046003    9.05189189224536
C        12.09935869233321   13.60655570988744    8.53760220349073
C        11.71770478846608   14.71919765185917    9.36538036233168
C        11.02931055796048   15.67365689544184    8.54028226848891
C        10.98206491855828   15.15122048969352    7.20205713933425
C         9.84814862974868   15.35154146987241    6.43113771838620
C         9.31952590284964   14.26690370234306    5.61962697521055
C         9.94918385136564   13.03149730587179    5.61420108749715
C         9.15459485350104   11.83369292619854    5.67155818869450
C         9.84494381646230   10.88016098161381    6.49801432889285
C         9.12536389063652   10.02602153810504    7.32513030599784
C         9.59200020532347    9.76365131512582    8.65812048482191
C        10.76136834119459   10.36874975316312    9.10770755666410
C        10.82267544984560   10.90300613882367   10.44453373698622
C        11.61008523955716   12.10870537660456   10.40729109059062
C        11.26309520393376   13.18738865803320   11.21481512996068
C        11.31942773508105   14.52033932283961   10.68140821186750
C        10.20616626520663   15.26540549756216   11.21530168075802
C         9.54057831121759   16.18576836706626   10.41846908328484
C         9.96142455340368   16.39875105146382    9.05564419262151
C         8.78892807864465   16.60925212693810    8.25266990923853
C         8.73490462598717   16.08512642913467    6.96424515388931
C         7.52228219542098   15.46596063564371    6.49272179638876
C         7.88560232847495   14.34438971931664    5.66410054160504
C         7.11720561926301   13.18421675954611    5.69484859129821
C         7.76668573710258   11.90306769048356    5.69843830275064
C         7.02016032982858   11.02263732063235    6.56255512098142
C         7.68586582301296   10.10284825115296    7.35959356761202
C         7.26454282404509    9.88955510727346    8.72121743953041
C         8.44437240090770    9.68085869757649    9.52390238053506
C         8.50576885763530   10.19625146859319   10.81187500536581
C         9.71946539336107   10.81648964677500   11.28162869796257
C         9.35573918554431   11.93739278655747   12.11206774413358
C        10.11360786183506   13.10052854794210   12.07763851420756
C         9.45945287138891   14.38589652928205   12.07905552659261
C         8.07371313876470   14.45946046512718   12.11359063284061
C         7.38195849798045   15.41575120112676   11.28530929205489
C         8.10186520428949   16.26255306960085   10.45383761776479
C         7.63800395251341   16.52320129916138    9.11320026861360
C         6.46979705405628   15.92710195105626    8.65651849826618
C         6.41061089626320   15.39087023961500    7.31962469711160
C         5.61982114554782   14.18601983331957    7.35621109504723
C         5.96858795740416   13.10366294792359    6.55928150080442
C         5.90673470617849   11.76629512011827    7.09565732792035
C         5.50062213822029   11.56201695982956    8.40713294749456
C         6.19240942178176   10.60566663046709    9.23549187121002
C         6.25726586385396   11.13972158651874   10.57251143889619
C         7.39278613123521   10.93784297709291   11.34572310451547
C         7.91825011953606   12.01425943947564   12.14953365741925
C         7.28830536477874   13.25162645153522   12.14966617475075
C         6.11106767882123   13.46120969497414   11.34509227200975
C         6.16953010550508   14.79810627915738   10.81028372303088
C         5.72246553308160   15.05001576293157    9.52002083046722
C         5.19694178993881   13.97368224603493    8.71622159021162
C         5.13852527236156   12.68623956966195    9.23307284333633
C         5.60517469344737   12.42499230982810   10.57128019185152
C        17.31942300263896   15.11648673240603    5.23485744858245
C        16.09698073294722   15.14975702906683    4.62574416612913
C        16.18276908075289   14.91685329136938    3.20543303038100
C        17.46123029456759   14.75365952092549    2.76874978313762
C        17.69843825469340   15.26516831319147    6.66627130033359
H        17.33200612700649   16.20534668681558    7.07590009164032
H        18.78172064645860   15.24156230219894    6.76260717955400
H        17.28036699691351   14.45236139605296    7.25961574464789
C        17.94461431594473   14.48231390496905    1.38819413925932
H        17.09951642415714   14.30241477845579    0.72806521763517
H        18.59630649933025   13.60972030027354    1.38025386033594
H        18.51575075332454   15.32727611819652    1.00312865624799
C        12.88836837278772   14.35562609039467    1.55031008532877
C        13.92243790936615   14.00396631395512    2.37473881464646
C        15.01811087071964   14.92766694576198    2.31351289888378
C        14.82852612508291   15.89820086675967    1.37238835779514
C        11.53708632223720   13.73952374063188    1.48858553828841
H        11.24596243752721   13.41292667423925    2.49425147800744
H        11.51599770805716   12.87019662555704    0.82968742557532
H        10.80882440834467   14.46214846854506    1.12670093483414
C        15.72661304850688   17.02421542243649    1.00089787183017
H        16.49778618612468   17.15095850659148    1.75674396147417
H        15.15585108284041   17.94697751229574    0.91435170184883
H        16.20840952559076   16.83634421358353    0.04053883985460
C        14.68974839512794   15.97655309436911    7.07234709262947
C        14.77541399613022   15.04557763617152    8.10730573516626
H        14.78130748876189   13.98502657243413    7.86219523542823
C        14.82800705268922   15.46129533384891    9.42261166476753
H        14.88800528868610   14.73473805305538   10.21966261074665
C        14.77479803606178   16.81507486286744    9.71688920951561
H        14.79689239639341   17.14486140743026   10.74481435119905
C        14.67362355182030   17.74330758948133    8.69445390989683
H        14.61831455918840   18.79696996808468    8.92656077784569
C        14.62927207930188   17.33112859460889    7.37302429796604
H        14.53157916574819   18.06126009595610    6.58262766530927
C        13.66225269590754   16.57679401193930    4.45448616334183
C        14.31274148269523   17.73757305772413    4.04994880617106
H        15.36059086281704   17.87453796097294    4.28263655294515
C        13.62090797775480   18.69827642364076    3.33525639920096
H        14.12396070016661   19.60259209498849    3.02356615895725
C        12.28584183978579   18.50405438742530    3.01715867996173
H        11.75217558648113   19.25717327384013    2.45650583812756
C        11.63826713358952   17.34250643171140    3.40553530016400
H        10.60090686699473   17.18857880467904    3.14709153903665
C        12.32415069530376   16.37825080259354    4.12093658863803
H        11.82582026452102   15.44353082786364    4.41670972071235
C        15.30288195217538   12.11067910449871    4.10380550187787
C        16.35300407710363   11.84588005176018    3.23464970471902
H        16.21569893398943   11.97541092984033    2.17075513556481
C        17.57195802677026   11.42883284651277    3.73762962082545
H        18.39429165862106   11.23374454993665    3.06459933439649
C        17.74394574169721   11.26238040259157    5.10229080908263
H        18.70161647636126   10.94672785354121    5.48881788330578
C        16.68887268743436   11.49225810152139    5.97050677749869
H        16.82116395529982   11.34223859671378    7.03244577702358
C        15.46807987152735   11.91120710132671    5.47372703425039
H        14.61312134705179   12.07744639322005    6.15058340017375
C        13.18622942111923   11.23158045238956    2.55130066303907
C        13.57324252575189   11.05129015265326    1.22946532069839
H        14.14869879345105   11.81575348900476    0.72543858096865
C        13.20279590522263    9.89955012626016    0.55942442112937
H        13.49895483052020    9.75823878627406   -0.47007622478113
C        12.45156615465003    8.92836608599911    1.20265385760033
H        12.16453801858898    8.03265330577761    0.67200021955616
C        12.06335716264878    9.10669230902518    2.52069536003971
H        11.47308413879247    8.35217416089242    3.01933154997738
C        12.42873544288607   10.25779866825733    3.19284680194791
H        12.12553585100018   10.42224078461310    4.22190461754710

