68
CSD_code = KAYHAU | q = 0 | S = 0 | Stoichiometry = C31H30Cl2O2P2Pt | MND = 4
Pt        1.57091545027667    6.57320768829799    3.46236711241919
Cl        1.99614899121052    4.63922263255963    2.28588682981654
Cl        3.58776161478850    7.53291873552595    2.90112904604457
P        -0.29367555206617    5.60227567746813    4.31906943151331
P         1.43620027157334    8.50638151936923    4.63507055773175
O        -1.63246975250044    6.46382488059864    4.61184020398447
O         0.03919010276350    8.70625094720995    5.44405054316791
C        -3.09370052391158    9.17449257640394    4.63097332996705
H        -3.87838058735301    9.92645353454800    4.57589731210461
C        -3.57766886617526    7.79656257487194    4.18554276079578
H        -3.96935997985114    7.21086884818573    5.01511032922914
H        -4.35394530465290    7.89220876634703    3.42647618906507
C        -2.35008175333454    7.11627070275968    3.56662274034553
H        -2.63541381365801    6.36820069595408    2.81661225387431
C        -1.55674556712554    8.26711777372968    2.94079410801585
H        -0.49569981390048    8.00898739558882    2.84788790487796
H        -1.94881776205454    8.46730979699446    1.94317979205357
C        -1.80259248042323    9.47647973813085    3.83330354637960
H        -1.77864222643715   10.40447179075554    3.26270601708157
C        -1.02265497122880    9.58870242131485    5.16875554701299
H        -0.69845892206881   10.61922200087831    5.35218117319325
C        -2.29043779803267    9.19708658741712    5.94238821148188
H        -2.61669416912074    9.91930638510614    6.68633577708921
H        -2.18647455672875    8.21768949166750    6.40083603883958
C        -0.97890315176699    4.08900792721912    3.56580419705315
C        -1.35897418299857    2.99201428745540    4.32554553299750
H        -1.20684625591572    2.99854216696860    5.39593808055392
C        -1.91874065314801    1.88959792255189    3.70339473354344
H        -2.20666491833428    1.02996786721309    4.29088878483232
C        -2.10309656320959    1.88391096891969    2.33056572691571
H        -2.53429328233672    1.01859613526855    1.84914285705638
C        -1.72462027912447    2.97997574063365    1.57199409199592
H        -1.85826332695095    2.96961745943596    0.50047397711537
C        -1.16017017285812    4.08175259019678    2.18780019706056
H        -0.82293621767248    4.92843022438919    1.60388979193434
C         0.13334644825275    5.18292354893829    6.02370525683688
C        -0.76833488232499    5.22090706849975    7.07949854462406
H        -1.80068539955044    5.47359506604032    6.89036812821815
C        -0.33211564414939    4.94299011317981    8.36335633606302
H        -1.03027397126536    4.97642806870426    9.18748724586351
C         0.99630116516213    4.62319941471113    8.59485506687770
H         1.33028535446957    4.40892989320379    9.59950930869367
C         1.89715705093072    4.58061745681694    7.54209426701817
H         2.93290159286610    4.33683566397463    7.72383769689090
C         1.46761737798354    4.86433850103453    6.25920671510161
H         2.16343030795526    4.84402566366880    5.42406771005998
C         2.59273991077608    8.53895551344386    6.03402150489914
C         3.90346194898068    8.97232682296799    5.86830471214135
H         4.22473952927159    9.34558746952426    4.90740790471542
C         4.78684661721668    8.90578424678323    6.93043244521671
H         5.80470948248287    9.24314913100081    6.80227524291193
C         4.37186711049361    8.40183718598322    8.15294764462220
H         5.06752310097206    8.34601836545123    8.97752804671048
C         3.06737392716181    7.96506744941420    8.31688779529423
H         2.74290723697935    7.56723822881328    9.26754591006330
C         2.17818793660054    8.02933828555542    7.25984718722576
H         1.15943921206732    7.68948706248365    7.37576715773316
C         1.67346984987100   10.10138529470252    3.79594896342215
C         1.63312967165605   10.17601603744516    2.41128129708943
H         1.53804618572342    9.26614444131194    1.83253745183807
C         1.75510263418521   11.40365540289350    1.78507991594253
H         1.73647592123344   11.46306276508507    0.70719224103822
C         1.90752639938908   12.55473575174635    2.54101925869509
H         2.00538969648481   13.51261696882943    2.05170074876743
C         1.94307753720464   12.48129429222691    3.92480093636191
H         2.06799815358907   13.37978151003780    4.51149977432334
C         1.82613841048255   11.25588813296872    4.55540981165687
H         1.86582710114438   11.18461273080250    5.63482304621829

