54
CSD_code = KAYHEA | q = 0 | S = 0 | Stoichiometry = C25H23ClO3RuS | MND = 9
Ru        5.88524138973147    7.37610069913083   11.07432845488079
Cl        7.95880604734755    7.01233230170368   10.03818760516706
S         5.52686422941904    9.02952250069828    9.44959525463326
O         8.94390125871125   11.88427251812287    9.01479798000834
O         6.91335031847863    8.81593388211575   12.16016692857719
O        10.66714420510858   11.36211105104051   13.31382349434642
C         6.84934114253023   10.08782828258856    9.43358586162162
C         6.96454071134406   10.87090470125423    8.25417900348582
C         8.01848101088049   11.70950696599147    8.06141987521171
C         8.83444166873567   11.24214411910205   10.20695361902733
C         7.80611442052278   10.29387414992554   10.46188584724520
C         7.77884520692903    9.66896095485302   11.76561223463769
C         8.74516794372679   10.08180540136695   12.70460250234997
C         9.72976375375964   11.00081820366245   12.40976024028993
C         9.78160452003001   11.58865391026395   11.14602681169267
C         8.25432921062886   12.49302661637175    6.84860379318574
C         9.09842040537199   13.60454241844389    6.89943685356507
C         9.33464323901154   14.35729071146994    5.76578174242883
C         8.73849917308707   14.01202302553054    4.56383749774065
C         7.90646470046893   12.90533214809097    4.50152741435907
C         7.66417804787132   12.14860757497160    5.63153549635329
C         5.18508075606309    6.46217827957729   13.09307689268417
C         5.81670442750769    5.45050805376384   12.35633482231932
C         5.41282790511373    5.17199567741804   11.02410947193240
C         4.32360282113385    5.84019223720258   10.43181481541343
C         3.69667165836447    6.86868747682884   11.18663202044192
C         4.11802418288908    7.18139857104878   12.48897900206916
C         5.62231283880489    6.80571726261535   14.48349201552690
C         3.81141086723025    5.46536961493095    9.06047705325608
C         3.12725130755078    4.09566374094076    9.11509034988095
C         4.93828890791482    5.47848760415126    8.02517185516795
H         6.20602359674066   10.75011727119024    7.50114478699565
H         8.70427775089643    9.61633529409057   13.67988295350146
H        10.53791763293662   10.86904286858959   14.13403712685325
H        10.55068722011809   12.30221945239284   10.90796846582247
H         9.55932871844548   13.87356727542145    7.83704408518777
H         9.98694594332975   15.21620146071946    5.81871185629076
H         8.92525508962981   14.59944818622936    3.67740671715327
H         7.44863672218085   12.62757414400406    3.56388879273089
H         7.03515344441334   11.27543303266859    5.56462068066227
H         6.60668776994953    4.86073589409554   12.80833661726126
H         5.90366975966314    4.36559003516679   10.49058832015586
H         2.83563951018896    7.38099027860898   10.76723216742499
H         3.58705510027700    7.92988418350447   13.06510354297616
H         4.76237769857483    6.96352909448791   15.13275282038168
H         6.25282649249203    6.02449479980862   14.90206627340424
H         6.19793806756096    7.73301442541740   14.45109930037170
H         3.06721697794800    6.21344210524819    8.76281496856390
H         2.31103954627763    4.10155039893252    9.83520579472025
H         2.72398578259465    3.84299879330955    8.13760147183982
H         3.83659694668292    3.32339874273813    9.40427225735255
H         4.52621040263594    5.39329885111129    7.02275635030341
H         5.50097398984045    6.40972785700091    8.09495208067766
H         5.62743756037039    4.65301490008845    8.18298575988152

