50
CSD_code = KAYLEC | q = 0 | S = 0 | Stoichiometry = C17H9AgBF15N6O | MND = 4
Ag        1.89006516013580    0.43236053613236    4.04405769900552
N        -0.77474021371158    0.63617950474167    2.05763119645615
N         0.44053704215512    1.11539671254403    2.28470542489665
N        -1.42044876492626    0.50448754781668    4.46057394736464
N        -0.25277339014854    0.69485310887521    5.05755956205392
N        -0.68071727989838   -1.54309388916071    3.25534082055767
N         0.63286033730507   -1.51193327772190    3.43438718705234
O         4.78407355015697    0.13644722827807    3.82086343602898
B        -1.50560066880439   -0.23968460642050    3.10696662016447
C         0.79459454740592    1.81135035017230    1.20863053073862
C        -0.22333206184072    1.78979817374224    0.25358834563570
H        -0.22711337912574    2.25914992391799   -0.70704656378730
C        -1.20424077458207    1.02126953624722    0.84761252874961
H        -2.16416357159106    0.73976582259799    0.46933110193436
C         2.11030432644701    2.50657210553893    1.18833414011537
C         2.10160742192677    3.72825060263279    2.14789972827483
C        -0.49196607676705    1.35394876662480    6.18640658383717
C        -1.85938800554055    1.59541495768918    6.33272745216657
H        -2.35089704733942    2.10062077782742    7.13664922093309
C        -2.40822330418987    1.03226377458121    5.19801352041836
H        -3.43213440955926    0.98646171351898    4.89235204590768
C         0.64779321907615    1.67949826282377    7.08706156261084
C         1.19371318041970    0.39332809921837    7.76738623835856
C         1.04648660588061   -2.77308557703110    3.51394924923891
C        -0.02904354622015   -3.65244555373492    3.37810854337080
H        -0.00491337885872   -4.72112975128668    3.39847235730353
C        -1.11205999359958   -2.81161601622933    3.21770736190950
H        -2.14409886643159   -3.05680287640168    3.08149594565474
C         2.49979893543963   -3.05647495491360    3.66046758624889
C         3.24585310599916   -2.75635866161773    2.33137302429724
C        -3.03119125692010   -0.53872864513848    2.68140627272966
H        -3.08895821822218   -1.13229257195264    1.77265533118540
H        -3.58547037631733    0.37850691804742    2.49974524503379
H        -3.56487582718678   -1.08545124351964    3.45459660947603
C         3.87373072412674    0.59531127848751    4.31520267147698
F         2.45000489151612    2.93488602152591   -0.04579229257634
F         3.12002505619655    1.68790536089766    1.60429470151554
F         1.10653180575067    4.56295813627663    1.83897576784301
F         1.90817091126720    3.32847255783604    3.41026894487457
F         3.23486571812613    4.41905409893819    2.11330367037167
F         0.30990780668913    2.56201139383342    8.05209437649349
F         1.68684759450686    2.23374458459683    6.40084789771204
F         0.21466513067619   -0.25855228326019    8.40019358644816
F         2.15038623913252    0.64276415455547    8.65315837496241
F         1.69777834166288   -0.44268254437464    6.85065982385667
F         3.07389563877570   -2.27502090896910    4.62018111915461
F         2.74761418402172   -4.33630571538963    4.00995988857209
F         2.73329493272879   -3.47530517129156    1.33056641935677
F         3.10722818062542   -1.46475445528900    2.00343803732346
F         4.54511582363748   -3.01791330681946    2.39553715669853

