53
CSD_code = KAYPEG | q = 0 | S = 0 | Stoichiometry = C26H22Cl2N2Pd | MND = 4
Pd        4.66653768015836    2.16942511064718   14.71753457453147
Cl        6.57267827510122    0.90565117238826   14.51553761477346
Cl        2.76856500496654    3.40433654860050   15.10271748420681
N         5.65463646815259    3.81344481999916   15.03960746517943
N         3.69061173031075    0.48840716617739   14.69908039531687
C         5.74952873084582    4.86371009809648   14.30967747501970
C         6.16740265563230    6.15756522146376   14.87044548615076
C         5.73284488165866    6.53869987093620   16.14035316080696
C         6.13116604608531    7.74747326802198   16.67890447245232
C         6.97668923122499    8.58162017946186   15.96561263612650
C         7.41451501175851    8.20878555545829   14.70452691626845
C         7.00877170781994    7.00818845676299   14.15364438463116
C         5.46961215240030    4.77597044415458   12.87055945020805
C         5.84678122923814    3.63561013177080   12.15391969709119
C         5.67857518261298    3.60034567819577   10.78119603883211
C         5.09237011493141    4.66791038228227   10.11955948049556
C         4.67555390433414    5.78065686507882   10.83276200697560
C         4.87620435005643    5.84497998852522   12.19845647942725
C         3.49210876409919   -0.32822599634100   13.73040001115265
C         3.09534220808510   -1.72438622590299   13.96787246138062
C         3.64317733518613   -2.43122717389700   15.03883939094039
C         3.26562998760447   -3.73927760511611   15.27598959439091
C         2.32911139016678   -4.35160797838651   14.45900368197752
C         1.77856301649489   -3.65513045338058   13.39466824819145
C         2.16209281869224   -2.35166469076851   13.14275064935501
C         3.62936177077139    0.14077708131349   12.34540890292335
C         4.12211178573538   -0.71069918189218   11.35610995758497
C         4.19037516218141   -0.28373782678852   10.04369617153134
C         3.73867950735767    0.98010511818548    9.69857237907217
C         3.25085454093239    1.83260735136799   10.67647305556190
C         3.21733282792189    1.43213273477929   12.00029508420372
H         5.92316797865047    3.94506456106848   16.02238126395827
H         3.51857809608278    0.10008413308887   15.63436603353723
H         5.04788474776472    5.90427398113703   16.68518284136781
H         5.77999033417003    8.04041077283232   17.65691479952979
H         7.29103777782290    9.52309284748104   16.39031906321384
H         8.07378443125598    8.85795656273111   14.14795071361627
H         7.35610904068891    6.71161263268148   13.17505482501821
H         6.34046178897316    2.80940192934759   12.65906961523360
H         6.01276546756154    2.73662180997307   10.22684948706233
H         4.96086724401637    4.63379629901340    9.04804921254114
H         4.20516318007502    6.60711453182072   10.32094680107855
H         4.55948151619767    6.71511836699320   12.75405719352956
H         4.39702747791614   -1.96614954199733   15.65843996781898
H         3.70407745377355   -4.28293941712144   16.09929153051228
H         2.03135786551792   -5.37175982630994   14.64918007046786
H         1.04820956041109   -4.13123177714108   12.75770081617557
H         1.72739253818821   -1.80424262957171   12.31959512364399
H         4.46580594052502   -1.69847884342214   11.62490968322315
H         4.58418276703734   -0.94408814452841    9.28538347933543
H         3.76595701012319    1.29957724955617    8.66720847634661
H         2.88831865106157    2.81326430017804   10.40852696725637
H         2.79869365966342    2.09445409089570   12.75444722878650

