45
CSD_code = KAYPIL | q = 0 | S = 0 | Stoichiometry = C18H18N6NiS2 | MND = 6
N        -1.04023460950770    4.08393180032736    2.69554921469609
C        -0.64699693761591    5.34303936037066    2.58720707794658
C        -1.16593704189082    6.21698501972203    1.64325966707561
C        -2.14527097756276    5.76013031388139    0.77567605617813
C        -2.57639781221301    4.45171170965566    0.89889208735109
C        -1.99966035997229    3.63591663298658    1.86785869342178
C        -2.40701360918905    2.24541347896475    2.04124299722120
N        -1.91478075957451    1.59969474536784    3.01139486965917
C        -2.29614855593620    0.25919556939637    3.30384163165456
C        -2.92864683273239    0.20661500030933    4.70295883807350
C        -2.04191341550857    0.81947917201691    5.78787377449435
C        -2.04346454007054    2.36583606509291    5.82156342962987
N        -0.76922039799164    2.90529130168396    5.42419200737591
C        -0.06042515069642    3.51646550613643    6.28663364490118
C         1.27146802055136    3.99500517711396    5.95235298995717
C         2.22839883241076    4.24379986839084    6.93295315870265
C         3.51319794780391    4.57261263502853    6.53560171917888
C         3.79096499279992    4.65443240544270    5.18018466722518
C         2.76565402730269    4.42305328145313    4.27249914172300
N         1.53626935282493    4.10338860787684    4.64091364913400
N         0.91011918629424    2.48167103970914    2.06818864498397
C         0.69313567566387    2.43589606324074    0.91028530706701
S         0.48605333865211    2.43925081259688   -0.65810726948223
N         0.95000259112226    1.22221734495871    4.31410667682031
C         1.89067018202754    1.01711839435023    4.99715036595684
S         3.07146875583336    0.61475454501018    5.96872950768193
Ni        0.02007513510385    2.67645629248651    3.65335581964370
H         0.12523807751501    5.66535229165042    3.27360160106949
H        -0.79643360261776    7.22832644769116    1.58368642947476
H        -2.55930089874419    6.40700429083081    0.01728414416828
H        -3.33734956928535    4.05089638112376    0.24734929948870
H        -3.12116042133013    1.82543185369972    1.32565852694389
H        -1.37891010605135   -0.33760782605615    3.31260019402891
H        -2.99568026644287   -0.15260042076854    2.55891022968844
H        -3.89503346295491    0.71746290665314    4.68209525755138
H        -3.11071302168325   -0.84137646834688    4.94607237648740
H        -2.38166281520491    0.45546243840481    6.75855767106541
H        -1.01664000020709    0.47484135263744    5.64045818117309
H        -2.29362075683976    2.71264637950053    6.83495658181472
H        -2.80194872430891    2.74534543496180    5.13136843598459
H        -0.40337845040354    3.65502403566986    7.31540087139932
H         1.97532730399699    4.14551354437448    7.97739435656292
H         4.28480105419366    4.74939191668189    7.26958586611001
H         4.78217528654143    4.89508716579125    4.83039302796347
H         2.93582333589498    4.48923613193217    3.20576858075626

