45
CSD_code = KAYPEH | q = 1 | S = 0 | Stoichiometry = C16H18CoN10(1+) | MND = 6
N         8.60251360158449    5.94424844182239    7.21338887098362
C         9.28873673750395    5.37247251292855    6.23189603747389
C         8.91618961334518    4.16448628878809    5.66319702197220
C         7.77906968135753    3.51756667033624    6.12869402445259
C         7.05998625407931    4.10090424338332    7.15677080044418
C         7.50046177616053    5.31568351655499    7.67627985480055
C         6.84424815157562    6.03258644894334    8.74095645774156
N         7.30741104359452    7.18969974130848    9.04122748006214
C         6.75991516400784    7.89249313658063   10.17088094352484
C         7.50488470031725    7.50282375918910   11.45678512618972
C         8.99589099343879    7.83156981590430   11.44207556083694
C         9.85702592438690    6.88998967883042   10.57585257379106
N        10.04562738593444    7.40199568953055    9.24280287100699
C        11.22148766611077    7.74642381838074    8.86528792284789
C        11.35089762709368    8.30776284217577    7.54575849994834
C        12.54326678739503    8.78164718112589    7.00319499342682
C        12.52511433441279    9.34056769132628    5.73732061342028
C        11.31866083699589    9.39848184809682    5.05293056827695
C        10.17260046549244    8.90046013493885    5.65378702501486
N        10.18185564830137    8.36598325548814    6.86960215278597
N         7.51242258136747    8.23282506511635    6.58320785228949
N         6.36066198144112    8.01664620102097    6.48802601363450
N         5.26631579830171    7.82834200044521    6.27525519545294
N         8.57056420660113    9.52602694415062    8.59924924490914
N         8.95888284995438   10.52633737183294    8.11624254900506
N         9.31025459845549   11.54575724643995    7.77906131504611
Co        8.69756779875019    7.79014070117038    7.94094060445071
H        10.16882077362960    5.89302217792482    5.88054181636290
H         9.50811643296969    3.74312170237562    4.86717426690483
H         7.46138467962513    2.58186519015499    5.69678394967810
H         6.16648351127707    3.64280370780228    7.54946331716314
H         5.99714220834532    5.59167496692066    9.25936751013011
H         6.87752938370154    8.96366377914261    9.99835413208154
H         5.69784001921773    7.65231773695495   10.28587701405030
H         7.03863413301946    8.05398082262158   12.27390049911738
H         7.36427546923595    6.43618154407283   11.64974240323349
H         9.36409947975453    7.76144264689982   12.46593504100746
H         9.14006873327351    8.85868462958711   11.10433049002262
H        10.83492480623975    6.75496362637211   11.05316745955974
H         9.37323022307657    5.91033537861073   10.50824380072513
H        12.09669019034597    7.63901904430965    9.50136118690038
H        13.45355115203793    8.72175538400133    7.57819847596677
H        13.42889480312525    9.73060146717504    5.29663363122199
H        11.25719786532538    9.83390126441299    4.06915354182739
H         9.21300192784006    8.94284268485163    5.15689929025800

