78
CSD_code = KAYSUB | q = 0 | S = 0 | Stoichiometry = C33H41CuN2S | MND = 2
Cu        4.09788357021400    1.36403276110326    7.30367387988140
S         6.27917434518438    1.44537513659717    7.20441471563472
N         1.41418981340305    1.30999885219534    8.46334228103412
N         1.34501956149862    1.06860454909141    6.33629121654219
C         6.79136348654927    1.43092236617699    8.87417781615185
C         5.89195132427679    1.40990900721121    9.93810599253705
H         4.82617871958273    1.40366960360315    9.73660899366953
C         6.34781117018283    1.39761932034417   11.24135119148809
H         5.63065877313695    1.38115712059479   12.05093812852003
C         7.70592076344171    1.40683383417534   11.51011413208818
H         8.05978855312015    1.39706636805958   12.53106637553094
C         8.60743709875239    1.42902677901275   10.45587474496344
H         9.67009120260297    1.43693275384203   10.65572710875153
C         8.15908025600748    1.44110662022436    9.15234126402480
H         8.85468431323514    1.45830516505191    8.32694610539825
C         2.19640557075104    1.25015711818855    7.36598256199886
C         0.09390052648913    1.16892571366603    8.12588102074869
H        -0.68567970814360    1.18997321430257    8.85894964480470
C         0.05032969569185    1.01656574906578    6.78128641687218
H        -0.77483160257027    0.87682195913925    6.11409043595382
C         1.74219698153988    0.95960261637807    4.97479204891249
C         1.70150499036254    2.10143669321006    4.17064237665512
C         2.09537405735808    1.97852125005867    2.84599612343263
H         2.08830854431736    2.84319475544458    2.20228585033999
C         2.50954402921734    0.76001730467785    2.34192142942430
H         2.81387693313908    0.68257997677978    1.30893073800885
C         2.55091779062768   -0.35445347223833    3.15614064187525
H         2.89312770448035   -1.29444913892304    2.75309339047419
C         2.16957739946938   -0.27674941238739    4.48923118589745
C         2.26093111485163   -1.49091465123549    5.38231001311916
H         1.83201631556203   -1.25242625316784    6.36078821396760
C         3.73165656605729   -1.85850864456036    5.59373539250264
H         4.20252351801230   -2.12768976971519    4.65209604740820
H         3.81527138413491   -2.70051029001191    6.27679806385563
H         4.27521644955782   -1.01306543751539    6.01692941503124
C         1.47543270022491   -2.67089234022360    4.80666177736507
H         0.44014308136621   -2.38941585160362    4.62335072242030
H         1.48831721291230   -3.50132178292534    5.50897180578201
H         1.90893857368928   -3.01266893624536    3.87096748592720
C         1.31965790301181    3.44312062020752    4.75101751984871
H         0.74523697373108    3.28497450170721    5.67008963626864
C         0.44888593581884    4.27174360258587    3.80636927909678
H         1.01572508950795    4.61696740796641    2.94632216580253
H         0.07052510033761    5.14721962241748    4.32953377645250
H        -0.39856433071329    3.68791669178571    3.45294987186426
C         2.60171045593785    4.19902004150110    5.11451686127900
H         3.20750338707623    3.61292190075943    5.80555003117294
H         2.35970127076372    5.15097578036012    5.58156485273972
H         3.19433792431122    4.38881179241967    4.22303281958098
C         1.90127374507197    1.48799824773088    9.78823202215998
C         2.11051036285398    0.35949485038806   10.58539695238536
C         2.59251876218895    0.55238086877375   11.87226825605344
H         2.77892904571440   -0.29858080755481   12.50722660704765
C         2.85185123715646    1.82441812694123   12.34687827089974
H         3.22460761809883    1.95695987523734   13.35174915602633
C         2.65162520643643    2.92571914474044   11.53817741126675
H         2.88090424731307    3.90994101506769   11.91460043403443
C         2.17292509871107    2.77944877694562   10.24279813770673
C         2.00174887169371    3.98580163036358    9.35076698760706
H         1.51502106794015    3.68006727313428    8.41896197567723
C         1.11899091955847    5.04897032621971   10.00734312125724
H         0.16155986393007    4.62333115794917   10.30202295304419
H         0.93499189009830    5.86041746213128    9.30680235482999
H         1.59570189829110    5.46632083792181   10.88980835169808
C         3.37768125466650    4.55487649689589    8.99544395554197
H         3.91106717537790    4.86586798861647    9.88987444036566
H         3.27240480521289    5.41330614682015    8.33627557544833
H         3.97852683593449    3.80053469452224    8.48647995066245
C         1.89390328081867   -1.03056931485089   10.03472271663640
H         1.22460679417544   -0.97226888799364    9.16938234144000
C         3.24054706277894   -1.58625408912258    9.56007272149585
H         3.67020801503147   -0.94486843101291    8.79043431379126
H         3.11280606807966   -2.58482821129881    9.14843702485227
H         3.94376591542401   -1.63670251118221   10.38790619620651
C         1.24638621951587   -1.97242664546740   11.05042485977026
H         1.93575769107578   -2.22387947238740   11.85150231551884
H         0.95523458651026   -2.89794333833004   10.55856076282993
H         0.35809197008859   -1.51829578052203   11.48489627079552

