55
CSD_code = KAYTUC | q = 1 | S = 0 | Stoichiometry = C23H23N8Ru(1+) | MND = 6
Ru        2.28489663420295    7.98460987980665    3.20405000746968
N         1.33292588929611    9.39904603001887    2.05002253084154
N         1.08177478028803    8.47221186583874    4.77438175491503
N         1.42905544916113    8.77848656318208    5.85295200049441
N         1.66599926062321    9.07808324694782    6.92203873841170
N         3.22570095726824    6.69509098736718    4.39626632916993
N         3.62816268206447    9.21144209032440    4.02991182552027
N         3.32035054397659    7.39459412951501    1.60764171011413
N         0.97216539973669    6.70474810976605    2.40812210595633
C         0.29602806741679   10.07411773075431    2.34331788315429
C        -0.41468362440787   11.01086904390875    1.43583011518882
C        -1.88292306846237   10.59990342263049    1.29356690675045
C         4.11618169655728    7.24760558013966    5.25356641422213
C         4.75958899427564    6.48192712000725    6.22522067480442
C         4.49039298465100    5.13029740234218    6.31847343615437
C         3.58551272383765    4.57056150504406    5.42458105794842
C         2.98174673037398    5.38644982087051    4.48855626771819
C         4.32961207542308    8.68003690140355    5.06010944102696
C         5.16353912013477    9.46412363908128    5.85549881172692
C         5.28685801766769   10.81458944881552    5.59161253623556
C         4.57806289169051   11.34804029751973    4.52224789219611
C         3.76878139578154   10.51441501350259    3.77634997858675
C         2.66853836015263    6.54473837029203    0.77192908786797
C         3.28302516343646    6.04079637827795   -0.37460051826333
C         4.58271579186524    6.40149751689924   -0.67065564473241
C         5.24732633644971    7.26003193732800    0.20104417176220
C         4.58083753894551    7.72608622910899    1.31442632280471
C         1.32345850723170    6.18434518473411    1.20849404336589
C         0.45217497485746    5.35393272282380    0.50169868200688
C        -0.78675726187981    5.05495124347196    1.03624691653350
C        -1.13035750065555    5.59272156428034    2.27143318112067
C        -0.22137210242720    6.40893077741865    2.91838101800946
H         1.67239839485222    9.57104374109652    1.09305663912462
H        -0.11794353768586    9.93458152045007    3.33952366912198
H        -0.37525752576540   12.01315575243099    1.87137390311117
H         0.06697278211293   11.04149689667688    0.45461367917639
H        -2.40406618484931   11.30485418138222    0.65263238238851
H        -1.96171398420168    9.60848133261490    0.85330814303279
H        -2.37181006552827   10.58867821754983    2.26373892765765
H         5.45573147577562    6.94273495567859    6.90533903476457
H         4.97087796183810    4.52499485326121    7.06997817840087
H         3.34548754017881    3.52054320966075    5.45874575212507
H         2.26472844016835    4.97605821712660    3.78681753827035
H         5.69421850974451    9.02487684139256    6.68288392377244
H         5.91470283954285   11.43941783142023    6.20558292463412
H         4.64311748189916   12.39566172969572    4.27808059753134
H         3.19779788872180   10.90469856442455    2.94207987527828
H         2.74741358608460    5.36909094159793   -1.02460131654079
H         5.07199085240888    6.02293337470409   -1.55316882174503
H         6.26429556429066    7.56342826790726    0.01452240789945
H         5.07109724844107    8.40228047216931    2.00434367595041
H         0.73881669118899    4.95249687258253   -0.45608964816356
H        -1.47225096346401    4.41628398833877    0.50246576462775
H        -2.08641617965382    5.38451818946319    2.72243500622714
H        -0.44140822563609    6.85470829496142    3.88072208426291

