58
CSD_code = KAYTOV | q = 1 | S = 0 | Stoichiometry = C24H25N6NiO2(1+) | MND = 6
C         3.49408508163051    1.89152875071085    7.13686382185367
H         2.53751444678729    1.39346493712954    7.15827472164723
N         3.23952009449525    2.41888313226631    9.45057171373787
Ni        5.37316671231752    4.49978901017538    9.61702731133821
N         5.13445468092086    3.19001196912755    8.29231191101329
C         5.50870178449149    2.52527463631710    6.03213344022294
H         6.15561575652232    2.52608174088953    5.17132372445916
N         4.86351928579848    3.19148858422572   10.95268087418108
C         4.22101943087597    9.14927378025813   10.71579424593707
H         4.48400858153295    8.54569086396664    9.84922852675519
H         4.85058722313408   10.03576754587597   10.72565437818538
H         3.18606831742441    9.46502364343410   10.60761925809641
C         8.23119745031773    5.63398197257427    9.80761141624553
C         5.33128520414232    3.27118629137881   12.20123977490395
H         6.30092675186759    3.73658863539508   12.31794016081930
O         5.32136472870959    5.83556646616740   10.94724603034914
O         3.29910392351214    5.47339089307287   10.19867793995471
N         7.64611840656773    4.44173572108826    9.67563809024948
N         7.72408483474439    6.72829526466273    9.13768024414932
C         6.42003166855722    8.16414389390703    7.78514346410149
H         7.18585498533908    8.91530533887835    7.90215646119006
N         5.63681581924641    5.96428827193134    8.30811491631512
C         3.36941544754030    2.25093475586860   13.08682409068149
H         2.77660064543461    1.90697121716746   13.91977643278528
C         4.62828861164334    2.80700305420856   13.29283481553162
H         5.04406108779618    2.89397755082649   14.28252013710854
C         3.55907891722752    7.07213190483436   11.98281593102844
H         2.51619057817963    7.29254282995051   11.75288957324744
H         3.60572056088140    6.58768486610733   12.96166365718990
C         9.39554184263575    5.81821367085992   10.56719605320863
H         9.83663806568907    6.79915606575446   10.65533488711004
C         8.21955339696711    3.39596397007940   10.27819900967802
H         7.73017176563791    2.44329965401002   10.11832548636220
C         6.57418056125747    6.91629418802382    8.41882565445660
C         5.89469759883674    3.15839073998470    7.19335012104074
H         6.84806110520691    3.66310759443911    7.26670977570246
C         2.89447946960485    2.13555287710610   11.79934611581679
H         1.93040919920913    1.69604898217818   11.59778129905956
C         4.06781453554297    6.06924954462081   10.96583162543737
C         9.96261754963039    4.73076283009763   11.19348737744630
H        10.85788192797366    4.84502064636233   11.78465320005323
C         9.36585604546928    3.48296468390705   11.04054987207504
H         9.78737045083541    2.60494523344282   11.50103381234565
C         5.29808305665427    8.41685221706305    7.03452472270585
H         5.16531074700812    9.37097895024484    6.54934424796657
C         4.33507536157809    7.41728795490361    6.91869542697994
H         3.43857916217425    7.56941439641837    6.34210413953361
C         4.54716998764842    6.22431952280739    7.57115276615711
H         3.80551425868474    5.43799909235656    7.51187782919588
C         3.97259823121961    2.52492720853227    8.29418726815192
C         3.68006723969207    2.60813868850521   10.74057195833977
C         4.26287250773194    1.90403842016073    5.99562904627481
H         3.91179227838950    1.42478667162513    5.09550426496703
C         4.40180508955460    8.34719259499172   11.99828226357471
H         5.45155371785448    8.07132399467095   12.11884181996409
H         4.10971914050421    8.95846242757241   12.85373944484122
H         2.31400046805318    2.02413749969367    9.35671522968510
H         8.27988422113482    7.56676215721537    9.24714821858447

