59
CSD_code = KAYVAJ | q = 1 | S = 0 | Stoichiometry = C27H23N6NiO2(1+) | MND = 6
Ni       -5.57669330927571    2.53008480780996    8.00302374973459
C        -4.48246993899305    1.74831857963036    5.22375142277200
O        -5.58028602884001    4.08226466227280    6.95448599455742
N        -5.28652181171504    1.23727554722065    6.15879053480468
C        -1.85359197251824    3.80282822097952    9.16662950647880
H        -1.47626158830836    4.13128742520439   10.12014808917195
C        -5.55875298712345    4.96297642324703    7.88261068678242
C        -5.80557552439344    0.81849448424366    3.45595235677462
H        -6.00709902078341    0.65934801597341    2.40801985455749
C        -1.17891159766187    4.09359646322829    7.98377998354736
H        -0.26366279665390    4.66436816393392    7.99616883913757
C        -4.71588711943989    1.56020496814048    3.85293280004432
H        -4.04688196252118    1.99263226095491    3.12480605609283
C        -6.63580461674883    0.27220185975691    4.43049334524799
H        -7.49107956836929   -0.32496865703293    4.16121845648791
C        -6.33331748817917    0.51128289509977    5.75448522421006
H        -6.94244863529363    0.09458488883176    6.54694437943491
C        -5.51455520356141    9.06528451205155    6.77313866371192
H        -5.50318271441846   10.10835525424408    6.49484293311782
C        -5.59241556218047    6.75309613143392    6.14218506679657
H        -5.64334019233975    5.97859607530959    5.39103063151090
C        -5.54428196209410    6.39093693871541    7.48508041991541
C        -5.57772889687047    8.08948278282581    5.79024974269861
H        -5.61603487259220    8.37393202985688    4.74938007242847
C        -2.90330355237261    2.90519237449751    6.80081372013661
C        -1.70071467869962    3.63527385236214    6.79880496771416
H        -1.20292292190156    3.83634078631717    5.86259211637814
C        -3.02856850619953    3.09040838268469    9.09178003372278
H        -3.57630906726103    2.85615550003118    9.99554705361244
N        -3.56042767344578    2.65204591597556    7.94165596381357
N        -3.35356229988427    2.45038470075905    5.58889870494428
H        -2.80227318317396    2.77113635804788    4.80321947089429
C        -6.22997325513903    1.41098163616658   10.42759886904434
O        -5.55106907018282    4.61641947837450    9.07754010590169
N        -5.59388116079457    1.17131126975131    9.27338897754810
C        -9.43389271263257    3.85202361636273    7.37578427259613
H       -10.00521075859637    4.19683282944010    6.53053937508288
C        -5.01267442019212   -0.34294838384898   11.52308685091571
H        -4.76936315570770   -0.91490498356677   12.40445757604132
C        -9.83320006978042    4.13512585058873    8.67836049423457
H       -10.72016659647533    4.71935513090609    8.86684364941209
C        -5.93213481795043    0.67877193459236   11.58732995500748
H        -6.43498263143699    0.91743978135784   12.51136242250117
C        -4.42100553841121   -0.63661904004231   10.29724315899659
H        -3.72198686103811   -1.44949736419926   10.19691374477029
C        -4.73482228125311    0.14897968852854    9.20970136211248
H        -4.29072502381479   -0.03162897016780    8.24068890904122
C        -5.48093751339475    7.37208453723614    8.46954820371090
H        -5.44343447169664    7.06635086466732    9.50422857700610
C        -5.46601905415547    8.70670349603297    8.11136515312953
H        -5.41670613859799    9.46963890859840    8.87352619318698
C        -7.92602199176202    2.91284386429271    9.44852895232310
C        -9.08409664655016    3.64904071771434    9.72698680905219
H        -9.37025964104152    3.83426234599202   10.75029719166725
C        -8.27136173545813    3.13612729375472    7.18316912924359
H        -7.90960486365649    2.91224697577944    6.18841495390842
N        -7.52176362261362    2.68985053274644    8.19457286974182
N        -7.21736681545636    2.36342889231379   10.49289610558928
H        -7.54987189840285    2.59607649202030   11.41836529700848

