47
CSD_code = KAYVEO | q = 0 | S = 0 | Stoichiometry = C20H16N10Ru | MND = 6
Ru        6.57554094310314    2.34280725578503    3.54487723910889
N         7.61778308138764    4.07931534831375    3.52160534701230
N         8.60955501276549    4.36767259028224    2.96956426378277
N         9.54595929444731    4.76150590705728    2.45789325276446
N         7.55305524791576    1.79702748992743    5.23260708629792
N         7.27336217180204    1.94407059679920    6.36023738881857
N         7.08584720574864    2.00641227220762    7.48044212773638
N         5.46703827853597    0.71903636112039    3.70042554551897
N         5.16654305887806    3.03296400939958    4.76007498776672
N         5.77246927687081    2.84099514372988    1.81303969593707
N         7.98078692099469    1.64866382213218    2.32938591622686
C         4.48702361921516    0.78033904463182    4.64589774172218
C         3.67425545972523   -0.32173936921716    4.91935159512425
C         3.85391636266902   -1.49789450463295    4.22400240209584
C         4.84980346392329   -1.54459468109095    3.24683161366565
C         5.61997128228705   -0.42675109511036    3.02610775233833
C         4.34909691989449    2.08015720154051    5.27722128991769
C         3.46538397677898    2.37613714518518    6.31787712558074
C         3.41487132545931    3.65789818345820    6.82405190839342
C         4.24483931354807    4.62872777663730    6.27057949403902
C         5.09972722591610    4.27140590619799    5.24804250536599
C         6.58676368465856    2.67603175644512    0.73254478773709
C         6.17943469609660    3.05959878255953   -0.54685763973796
C         4.93154318943631    3.61363894929963   -0.73370465397549
C         4.09987802125489    3.76382471205524    0.37736924781088
C         4.55940132260171    3.36903272486893    1.61208617907830
C         7.85525536236063    2.03825607393992    1.03484418845138
C         8.88053919932143    1.81578095858588    0.11248939891912
C        10.03667762102360    1.18361255218768    0.51921240653236
C        10.14346028077730    0.77336817471837    1.84511910715097
C         9.09739847841952    1.02732143892253    2.70834892935750
H         2.91015154832941   -0.24926756116256    5.67587051542352
H         3.24028662818412   -2.36078094422699    4.42801382762663
H         5.02460383717830   -2.44235606239525    2.67603105617756
H         6.40771052066949   -0.44079172281393    2.28132692953410
H         2.84524093353641    1.60087120740953    6.73690012663412
H         2.75136386014535    3.89937898618264    7.63943516452958
H         4.24103162262244    5.64042678367065    6.64178415233204
H         5.78258490195330    4.98520496118140    4.80364602346405
H         6.84430807725422    2.92366422742897   -1.38406147960670
H         4.60445757606010    3.92311883954550   -1.71346753034875
H         3.11452717844293    4.19005710114318    0.27856655813452
H         3.93775783573087    3.48542659532434    2.49265567190752
H         8.77602927785274    2.15731242259928   -0.90418186874827
H        10.84518552179613    1.01953246956093   -0.17560517644505
H        11.03269588700767    0.28229342379194    2.20495231811808
H         9.14448349541744    0.74998674482427    3.75436548073259

