59
CSD_code = KAYVAI | q = 0 | S = 0 | Stoichiometry = C16H36NiP2S4 | MND = 4
Ni       10.26361152265629    4.38822258970665    3.02795403207673
S         8.19454645374802    3.69926594289611    3.83343043950566
S         9.49724290323087    4.51106501639479    0.91256824095429
P         7.97935423472790    3.56865100246096    1.84213811976852
C         7.93292733212419    1.79700569150913    1.30055942705309
H         7.32262873403320    1.26071977205235    2.03296895690410
H         7.41775337260237    1.78149613425364    0.33522995843289
C         9.31221563843070    1.14840760609273    1.16430833936738
H         9.90243994269926    1.75172938133271    0.46353570617512
C         9.15281678022314   -0.25794614512709    0.58899886586132
H        10.12687376882013   -0.71804213593009    0.44281748060863
H         8.64155652218845   -0.22905923949340   -0.37068951478502
H         8.57722421231399   -0.88281880927565    1.26892794587184
C        10.04900073733035    1.09338940089049    2.49996853983483
H        10.97158993317029    0.52728910581301    2.39825325236053
H         9.43341543656783    0.62316972272379    3.26376226509726
H        10.31449208607611    2.10783390579086    2.85273987450665
C         6.34289506934116    4.22750527776412    1.30117422478715
H         6.43817417874575    4.46627687423425    0.23716558509794
H         5.61545086400067    3.41760049085571    1.41505086151420
C         5.89709543135797    5.45592339827334    2.09655120035001
H         5.82293168027098    5.16788317677232    3.15187263055418
C         4.51961507774802    5.90222318651639    1.61167363773021
H         3.79533681570504    5.09539242987048    1.70360831879015
H         4.56580086485470    6.20852894458455    0.56836871777092
H         4.16857381111499    6.74543942249870    2.20112601554994
C         6.90633075368154    6.59294142567746    1.97616551504855
H         7.85665166354477    6.32053399524937    2.43866402658154
H         6.53463819453908    7.48098481552022    2.48200333483580
H         7.09128920163731    6.83781026776410    0.93181180112232
S        11.65410133615958    6.20213695760483    2.73211222673647
S        11.24305065006491    3.92495274883380    4.99882660734161
P        12.58266266664396    5.19871775097127    4.20515768810335
C        13.19554875607032    6.29182452787743    5.55922418232826
H        12.37037344675692    6.97757845933522    5.78039181011657
H        13.31829332766097    5.63031651267357    6.42416846636052
C        14.47881161485309    7.07609826161977    5.29117938954016
H        15.28771162916169    6.37099573072219    5.06846301594512
C        14.30819116893936    8.01714204235283    4.10455361498420
H        15.22309939327902    8.57936134651020    3.93182492711974
H        13.50048593069370    8.72101837536334    4.29194999123197
H        14.06868991935904    7.46155104852483    3.20046695603313
C        14.85859940208302    7.85936617161260    6.54712324723054
H        15.78507051619949    8.40493637448515    6.38486476422854
H        14.99779072035816    7.19122220624711    7.39433104212779
H        14.07852566250674    8.57498035165210    6.79728156998105
C        14.07664126209798    4.27365955192998    3.60856482877534
H        14.60472632115016    4.92202899088850    2.90460682809059
H        14.70665634521814    4.12294912876578    4.49021550817310
C        13.76430454035812    2.92204017714967    2.96400706630578
H        13.17441820514534    2.33198612219405    3.67642941818336
C        15.07221488249277    2.18568734663161    2.67944683152660
H        15.64843047846825    2.05019706916172    3.59210155505884
H        15.67653473089524    2.74581647272204    1.96865719181528
H        14.86761446586713    1.20519620646369    2.25699716482892
C        12.95628871865104    3.08678393025166    1.68069474390817
H        12.83982613236823    2.12909844031820    1.17993018906838
H        13.44395376666941    3.78032668619178    0.99904314833166
H        11.94291079241370    3.47850836329500    1.89997822719081

