35
CSD_code = KAYWEM | q = 1 | S = 0 | Stoichiometry = C16H15CuN3(1+) | MND = 3
Cu        8.44399092409902    2.86485604449172    1.16453291235715
N         7.10399019940058    3.68432837214304   -0.09557729565901
N         8.83187993041337    4.77627855266193    1.66793619816131
N         9.02759756016257    1.22007694502747    1.61710066531955
C         6.27146844975035    3.10842566540172   -0.94225411805154
C         5.40459882727178    3.87566805146269   -1.74305489379911
C         5.41650783136097    5.24225619657803   -1.65288144420432
C         6.30126717873644    5.86812820853250   -0.75320096025652
C         7.13413268921359    5.02993149268254    0.01289488534292
C         8.05119603356027    5.60875658310502    0.94626931431307
C         8.11057064171093    7.00896634754331    1.08432748970754
C         9.03140845056089    7.52164075905591    2.01876021514455
C         9.81092774664713    6.65590644668172    2.73900380840489
C         9.68955612199057    5.26736128477003    2.54244696453364
C         6.38629201805853    7.27864654554955   -0.58985522004807
C         7.25721865073712    7.82752176869688    0.29362959680155
C         6.26638694212037    1.62273261183996   -1.03466585954364
C        10.53098986464340    4.31897065202668    3.32250806870767
C         9.88132772961202   -1.11708840967623    2.26017695156065
C         9.40891024130657    0.17368216218866    1.90610227186382
H         4.73712266370553    3.37042442109879   -2.42295900564424
H         4.75878507412174    5.84623520247152   -2.25961454343823
H         9.11121791574474    8.58940939269487    2.15666425483178
H        10.52341828071401    7.02095900342139    3.46159650642509
H         5.73902229564808    7.90134763732168   -1.18808998512646
H         7.32040103936366    8.89789647835852    0.41587273283587
H         6.49345967452871    1.30863197386389   -2.05210306880174
H         7.00532887491529    1.20168568701947   -0.35363460923876
H         5.28118963828457    1.23458398331306   -0.78103573040499
H        10.29684861878812    3.29221751290774    3.04310492141570
H        11.58616955952556    4.51129311904681    3.13502285267631
H        10.35522132133957    4.45124790362503    4.38886099911948
H         9.06734861402302   -1.83994520145295    2.19721870186337
H        10.67723045722890   -1.41420954627460    1.57653705152164
H        10.27091794071409   -1.10342384817634    3.27855937130760

