35
CSD_code = KAYWOW | q = 1 | S = 0 | Stoichiometry = C16H15CuN3(1+) | MND = 3
Cu       -4.69727495553376    7.32012965739866    5.75167402077488
C        -2.39249892484587    6.87183765075828    7.67421317821657
C        -1.47806731729055    6.03037800478344    8.33544479654727
C        -1.50130120090563    4.67968196647893    8.10976053518682
C        -2.44667072896409    4.14469975004999    7.21309332896243
C        -3.32578712684071    5.05311277132670    6.59253042834302
C        -4.30810777900027    4.56764424371496    5.67242477522592
C        -4.38421182948844    3.18776491718082    5.40152416555819
C        -5.37243654265340    2.76789995707765    4.48992688295429
C        -6.19750794343069    3.69885277199266    3.91675253185830
C        -6.05452993503991    5.06160592794503    4.23912133060312
C        -3.48096344657649    2.29687487732955    6.04483059561071
C        -2.54841633032863    2.75734039707714    6.91584126673985
C        -6.94448363408298    6.08076935171394    3.61836087973842
C        -2.37489458196468    8.34083441674832    7.91379737742720
C        -6.21772589941875   11.36732805425724    5.09560271607128
C        -5.71160626613551   10.05913411663297    5.31285812671339
N        -3.28203647004020    6.38138584489525    6.83166319172558
N        -5.13356481280290    5.46576456761836    5.09346946904192
N        -5.30123928287590    8.99889808951064    5.49034373111073
H        -0.76530134342702    6.46660279579700    9.01715964585507
H        -0.80728395632314    4.01968703988682    8.60803904422426
H        -5.46789591314495    1.71870331216946    4.25413745595566
H        -6.96261129294164    3.40526481036751    3.21569190965311
H        -3.55697964744393    1.24383887347974    5.82123030890521
H        -1.86372653640389    2.07986261292022    7.40249712576756
H        -7.98470380960449    5.86804060963381    3.85959143638362
H        -6.84467891489641    6.05569793380101    2.53442209877997
H        -6.68662752504352    7.07520818016867    3.98119500423019
H        -1.40248587012861    8.75293427766071    7.64912693951584
H        -2.54715495885115    8.55124670335502    8.96812135349879
H        -3.14687453480461    8.82757004649322    7.31850355956709
H        -7.17275274060211   11.47944699189153    5.60990584499903
H        -6.36496112359970   11.53324425493116    4.02793884304340
H        -5.51503682456591   12.10731422295466    5.47990610121185

