80
CSD_code = KAYXIU | q = 0 | S = 0 | Stoichiometry = C36H38MoN2OP2 | MND = 9
Mo        5.97512493217478    7.47335895323771    5.75087027949216
P         4.54357702491291    8.22212857158337    4.06827604816063
P         4.93133914614392    5.59503297639272    4.82395508786967
O         7.85164754976871    8.26362245352773    3.44944219208428
N         2.62788752001777    6.90919639925556    5.39681379381155
C         5.09803695247675    5.27603915113256    3.00551962363144
H         6.17011582912772    5.38842228290205    2.74519621804667
H         4.78566681945469    4.24773703902085    2.78885320870784
C         4.52233537008870    9.98781884435328    3.61704519120763
C         7.12776232981593    7.95388387558969    4.29786415526429
N         4.23911216667398    6.19440212240001    2.29582449272708
C         1.18169351265356    6.02777462521072    7.17181840246244
C         2.74593161133832    7.88941402128984    4.34238740923695
H         2.29474334588032    8.82729598765920    4.68982625523102
H         2.24484463119129    7.57171006610720    3.40778508953314
C         4.72844445041930    7.55074832394869    2.36506042623736
H         4.12053240591404    8.18114690810899    1.70242677649425
H         5.79025193436316    7.63882451913666    2.06354255628856
C         3.96498553199567    5.79981436912636    0.91492552358609
H         3.73129741505855    4.73069192414655    0.91115282076358
H         4.83856073234919    5.96397594982701    0.26336374850843
C         0.71658631500609    3.95331238996525    8.30641644104026
H         0.37809277372166    2.92811566409876    8.27122116050715
C         1.57243816389062    6.58081121360089    8.38461224813751
H         1.89839945905255    7.60971922141192    8.42014170215281
C         1.25816708527672    6.84430810754202    5.91042014699786
H         0.57320880984868    6.42781744651479    5.14993618893515
H         0.93778352504311    7.86812865537155    6.12809564046311
C         6.26858950259635    3.72456112809231    6.39411627411848
H         6.86384710757999    4.57452605854246    6.69467526631777
C         4.58903138196472    8.50211867138012    7.23279153661347
H         3.57567599187479    8.84354788521174    7.07109582612641
C         6.50729314985325    2.46614657144755    6.91931658084016
H         7.29648112262125    2.32516840017970    7.64348183102688
C         0.74652010414470    4.70850241571675    7.14711585982490
H         0.42157772688633    4.26902958112974    6.21366774801161
C         3.51004325248650   11.88731862033257    2.54280161405949
H         2.69114644096346   12.31914388507955    1.98521635710613
C         6.84982909835971    8.57518876815766    7.57399243498362
H         7.84835529210036    8.95789630033886    7.74801765349602
C         2.77588715751647    6.57325072774925    0.41125563173158
C         3.08893415878100    5.60746799469672    4.97406859130483
H         2.61260316176762    5.28772570760889    4.02818808132527
H         2.84492196743640    4.89103484869146    5.76622114430086
C         5.74937929482077    9.30876442900664    7.08304900506529
H         5.74746837230116   10.36149187112344    6.83006687388848
C         5.64917476102065   12.11381097670826    3.60348677501432
H         6.50178964906764   12.71986462572045    3.87303393552087
C         6.35775644400753    7.32070977003795    8.02862074742651
H         6.93346205584825    6.58920236963469    8.58325942186266
C         4.48399187919910    2.83066159263397    5.06626186241531
H         3.68495785062970    2.96563401346273    4.34888802786014
C         1.80562457062125    8.28690413665135   -0.97373653961132
H         1.91822810398063    9.03936055131755   -1.74026595709812
C         4.72168730545997    1.57528419807265    5.59196486284884
H         4.11481435307644    0.73699704902423    5.28009719626862
C         0.43211030520404    7.10205221729355    0.59060328909604
H        -0.53211528392524    6.92710943075717    1.04595825310085
C         1.52858689822657    6.35849913713003    0.98646828584123
H         1.42320290714559    5.59935795898867    1.74852567154020
C         5.61194158445461   10.77711312428867    3.96029443768311
H         6.43249678307622   10.32742115410850    4.50357864847112
C         5.26224636965549    3.91856134026721    5.45993627636976
C         2.90341907526796    7.54469418395800   -0.57184189729486
H         3.86825855384801    7.72141542515322   -1.02630059964604
C         3.47255182488987   10.55086443462176    2.89326403159298
H         2.62638557654179    9.94335716506591    2.59913473347300
C         1.12081409410739    4.50999764841025    9.50725320695028
H         1.10084132169784    3.92062491650362   10.41192814763627
C         4.59575281249024   12.67187243305528    2.89968258897485
H         4.62050976325953   13.71565595316250    2.62296119427770
C         5.73579658454220    1.38936275475644    6.51855947485229
H         5.91981053933796    0.40616601174909    6.92644449712544
C         0.56948888183799    8.07045001426086   -0.39042123568758
H        -0.28578594867298    8.65265311767554   -0.70007790881483
C         1.54441618649967    5.82762566638257    9.54456189154097
H         1.85396374250753    6.27049365670621   10.48005675320801
C         4.96519628827109    7.29027916140327    7.83639295651645
H         4.29755725123164    6.50647538227501    8.16940009514321
H         7.14061528788040    6.40273250180805    5.74569573781985

