78
CSD_code = KAYYAN | q = 0 | S = 0 | Stoichiometry = C30H42MoN2OP2 | MND = 9
Mo        0.16769551252823    1.21778491257618    8.35026634584320
P         0.18711267958876    3.34148365692647    9.37911896421265
P         2.01455733964825    1.20449154833158    9.85059805863206
O         2.49440834889444    1.61600783802022    6.39078990029462
N         2.75295853759444    3.83210053007753   10.07391436598694
C         5.34822063233917    5.11694412415472   12.35622450551850
H         5.92018299613149    4.75568343985662   13.19853576518423
C        -0.84962555757412   -0.41372303789030    9.59364888295696
H        -0.69434539617508   -0.69489158336381   10.62829699200840
C        -1.09208109988441    4.64258606865968    8.90093456736424
C         3.18496919544573   -0.28732473438469    9.99837650064966
C        -0.63726742900048    1.46083501143183   12.69692734697002
C         3.69309135940506    4.70646143716915   10.64086905786254
C         1.58009929124380    1.48740618211984   11.64012656969882
H         2.27054147370369    2.20394338425200   12.11490000274743
C        -1.91278874789849    0.35631367637036    7.73763829187327
H        -2.67685856806233    0.78279547399819    7.09897920773295
N         0.21530399726275    1.93783543884983   11.70133517690124
C        -2.01806055639078    1.64989266156851   12.57041101423807
C         4.45259998489478    4.27307863603593   11.73162972386943
H         4.33384448859746    3.26517007588121   12.10266355577953
C         1.72085526185909    4.38188548987953    9.23498950809604
H         2.00967894662885    4.40317345094836    8.16825770377159
H         1.48553797863751    5.39139877240255    9.58121286041584
C         3.56048082157483   -0.65748352928150    8.56568495745970
H         2.66826642290707   -0.87906089938429    7.98181627835628
H         4.21172140654404   -1.53082772813582    8.55400180483969
H         4.08290143500525    0.16516009901631    8.07997073066338
C         5.50778751410197    6.42042586427169   11.91652931145115
H         6.20530618195973    7.08126127661324   12.40763943467047
C        -0.90226117574903   -0.54161318325296    7.30751712671716
H        -0.77923511919533   -0.91124579324368    6.29698853905122
C        -2.42678632829561    3.91557178438009    8.78312330431074
H        -2.35134133545974    3.13393097490241    8.03182416002733
H        -3.21589448713147    4.60779925150257    8.49223013252807
H        -2.70547883123076    3.46417730565366    9.73431523994279
C         0.04619962609657    3.29032969403588   11.23002607011783
H         0.80407103148716    3.95478686900558   11.68083229534423
C        -1.23494250708594    5.79558785828274    9.89895023118908
H        -1.74716688544937    5.48497789349220   10.80657652620397
H        -1.83162568246649    6.58331580980077    9.44051061162203
H        -0.27659110277877    6.22718387410438   10.17911751758740
C        -0.18568857292222    0.74185765228773   13.80669335846986
C        -0.69145780946500    5.19185642978658    7.53105777914955
H         0.11627954516113    5.91538386170559    7.61359658798855
H        -1.54163412848792    5.68682202547851    7.06406724702539
H        -0.37033738933072    4.37616224262145    6.88329857433306
C         4.45674510114231   -0.01861031059672   10.81042166246026
H         5.18833461104083    0.55562798610129   10.24706148699087
H         4.91995164927338   -0.97331260228098   11.05854629792914
H         4.23608926422645    0.49619646621679   11.74474550441317
C         1.65535532200917    1.48892392416208    7.17617526996434
C        -1.89187779770811    0.40973691646088    9.14303605872189
H        -2.62518521817200    0.89943904872235    9.76648691756550
C        -0.24246108282170   -1.02253198153219    8.45405680165311
H         0.43591274856386   -1.86562128513717    8.46320196286517
C        -2.43807645054791    0.41278827468435   14.58383079805624
H        -3.12891547166507    0.00603865691259   15.30611409559886
C         2.44841018643785   -1.45559364438703   10.66239717120980
H         2.50151540100993   -1.39480971498865   11.74846281308518
H         2.90765702553959   -2.39799744093679   10.36578166274037
H         1.40348762411080   -1.48280060802565   10.37295798473493
C         4.76403758689610    6.86184845202372   10.83715440615460
H         4.88613517274470    7.87179417017673   10.47359722393284
C         3.87021478115097    6.01905052622192   10.20203376238565
H         3.32934172372677    6.38683137448650    9.34367705108344
C        -1.07613320386773    0.22339555349350   14.72887299803670
H        -0.69427404124147   -0.32668909901120   15.57705240098313
C        -2.90063631803823    1.13673953243841   13.49745941208619
H        -3.96125029813189    1.29561444651667   13.36496836516448
C         3.25249770835858    2.56066023398064    9.60361208701434
H         4.16594398978997    2.32501581937903   10.14984651539830
H         3.48632671016341    2.61007719816083    8.52561629785284
H        -0.33109627069594    2.20694513654053    7.22123015193954
H         1.65960240742253    0.51837542678070   12.13224452957379
H        -0.94163116358495    3.64929404917848   11.51673430565292
H        -2.40762563547510    2.19204477314420   11.72210171180335
H         0.87020063913802    0.59523663359862   13.97770960529389

