84
CSD_code = KAYYER | q = 0 | S = 0 | Stoichiometry = C32H46MoN2OP2 | MND = 9
Mo        0.85230809428145   12.12196641533189   12.70251628569386
P        -0.22874913733725   12.51112705195578   14.78547171235096
P         2.37731011500036   13.32962059297180   14.02976829197714
N         0.92258612265015   14.75203435770760   15.79576027713603
N         1.94946504439020   11.36067309630632   15.84964460422393
C         0.01657678339671   15.55144576485919   17.90032059114830
C        -0.34888019442551   14.28064693813153   15.29434191017701
H        -0.70110394569154   14.88058735379535   14.43557265019099
H        -1.07162905875371   14.35583636123151   16.10880890871865
C         1.86582067830413   14.96712502674701   14.72585814767617
H         2.74263719361182   15.48294064987037   15.13163455995487
H         1.43872492924472   15.56899847640050   13.89937071122500
C         4.06433227534855   13.80927000362949   13.33805792097608
C         3.76667539013641    9.78079612313462   16.30827375838598
C         0.64978428104422   11.83748969096777   16.26965622846281
H         0.71722614569223   12.60070320008360   17.06590204523504
H         0.07883200738909   10.98402900660786   16.64562004972262
C         6.05699896221483    8.60531154875227   15.24219137411237
H         6.94451468572321    8.15343815676505   14.82471814987215
C         0.62273608811762   14.69675195801658   18.81366039503705
H         1.63390962945157   14.36171785209277   18.63127831766015
C        -2.10959727783654   10.43982177712399   15.17061249163887
H        -1.58606321518192    9.99928613859813   14.33063249590999
H        -3.15487257369230   10.13573151048189   15.11316782101029
H        -1.69864569512913   10.03019947887866   16.09191898221719
C         4.80340344959887    8.14709413453308   14.87346333693301
H         4.71074472643771    7.33367124236839   14.16850790179044
C         2.85600580828606   12.45263670338280   15.57680231276332
H         3.84024382425245   12.01604721359385   15.38792486019188
H         2.92730430435003   13.15985703729587   16.42447574623902
C        -1.27740648273827   15.98923409980094   18.14754436713833
H        -1.75784848260271   16.65762934971558   17.44641704993528
C         0.77595658989170    9.88579774220538   13.17188470837013
H         0.60097390019955    9.40607245126386   14.12584590470436
C        -2.01706826476529   11.96645158491562   15.14147233891908
C         0.74842819558351   15.93306780254279   16.64225364165013
H         0.20971541797686   16.73600269952501   16.11210289660077
H         1.74402492044358   16.30553293517771   16.90378324256942
C         2.52310924449739   10.44266064342663   16.83611982426225
H         1.77356440961656    9.67395788498545   17.04907425283692
H         2.75067811929287   10.96939723283727   17.78075627804668
C        -0.05385939359140   14.28063951091975   19.94552545578487
H         0.42672883320957   13.61425912014429   20.64730768263098
C         1.84605146690155   10.56343157253338   11.28860938290020
H         2.62043670288823   10.69743134570259   10.54318504028823
C        -1.34641202879782   14.71934852608053   20.18125580525817
H        -1.87625231678119   14.39447903813617   21.06432985829962
C         5.02955036397931   10.22406914943306   16.68257137511154
H         5.12315100669700   11.03045274416916   17.39764956523207
C         3.66694511490531    8.72997827549111   15.40544439775332
H         2.69100470118043    8.36673721749994   15.11978348651061
C        -1.95459782889620   15.57882400744659   19.28327768322641
H        -2.96072622543603   15.92738899433442   19.46405776407191
O        -1.06141629755016   14.39424179001131   11.93387881814424
C         4.58049643805315   12.59589368422496   12.57292421855465
H         4.67092315527876   11.73131036818968   13.23049296590542
H         5.56086048667173   12.80236118860895   12.14486063061763
H         3.89091223253969   12.35582413545445   11.76882385385401
C         0.45052087618692   10.59602973466595   11.02206886752249
H         0.00044196021537   10.74399830244111   10.04795115158961
C         2.03917774607355   10.10340374303187   12.60219507496478
H         2.99036043316386    9.87278653075300   13.06029437422085
C         6.16796918271110    9.64125178242099   16.15354910797611
H         7.14295453315270    9.99841494311840   16.45189648638501
C         5.10042175934422   14.20962092456952   14.39270118532199
H         4.71939642767943   14.95401757262458   15.08836977760120
H         5.96490579040022   14.64045976725635   13.88832202243112
H         5.44725093597495   13.35099217897827   14.96309992280767
C        -0.21508952692973   10.17072814850990   12.18786099656851
H        -1.26401624126337    9.90593902004633   12.23226921161935
C        -2.57569579056769   12.49306920056500   16.47011922864648
H        -1.84558393105979   12.42154870276973   17.27542260085279
H        -3.44234829684536   11.89504898158093   16.75078074849128
H        -2.91115944919013   13.52428797316708   16.39084041854123
C        -0.34550628582237   13.55275946490994   12.27790977383472
C         3.84242617645537   14.96858914331697   12.36607006639327
H         2.96126655050241   14.77353123667375   11.75492859753152
H         4.70273219011724   15.07639218874454   11.70702488344014
H         3.70156770222816   15.90835123278742   12.89548417299095
C        -2.84994205412458   12.49701281287738   13.97726776412117
H        -2.80110730565818   13.58343213533417   13.93009646425123
H        -3.89366573146311   12.20441153542626   14.08798413291878
H        -2.47501503005741   12.10316440374933   13.03325516880087
H         1.61261395925929   13.03372838328627   11.65767247237214

