79
CSD_code = KAYZAM | q = 0 | S = 0 | Stoichiometry = C38H28CdN10S2 | MND = 6
Cd       -1.59158447175531    1.29681764786528    3.30713729673927
S        -2.29804575372753   -1.13326875702895    3.90146719055553
C        -0.72480924460486   -1.72874136685750    4.03078694040663
N        -0.29768098674497   -2.65727310984227    4.93261427436957
C         0.39038522296313   -1.50540266577348    3.15088426290963
N         0.99029783474324   -3.03067926840210    4.68992843598730
N         0.61205635596292   -0.67014556936174    2.14664231181154
C         1.40430134194797   -2.40066504982892    3.63151631189362
N        -0.15640952624751    0.34743178310600    1.95553487934153
C        -0.88513035535348   -3.11338652446327    6.12005888960850
N        -0.54395894235116    3.04275214011259    2.09027504848127
C        -0.03379348812629   -3.61542837668464    7.10569303289730
H         1.02287842770563   -3.66686390343706    6.89880177481134
C        -0.54361621692031   -4.03760881169795    8.31644612341798
H         0.12572487881526   -4.42425676021340    9.07111647380424
C        -1.90438749795643   -3.95944384964162    8.56729074679898
H        -2.30154913747598   -4.28060815267548    9.51871967075097
C        -2.75025529414105   -3.47899232351922    7.58368542656126
H        -3.81397934165350   -3.42840669493182    7.76184047204386
C        -2.25439084807220   -3.06705534607467    6.35934271857793
H        -2.93112808106949   -2.71398560365403    5.60182915682116
C         2.76498828191143   -2.57278158068553    3.07038669749309
H         3.31333981578739   -3.30326058953238    3.65783128787486
H         3.29481819355012   -1.62182060791636    3.07639581263081
H         2.69732310049118   -2.90837856675318    2.03739404115319
C         0.02604538342171    1.09484010160925    0.81980970544207
C         0.37631259241855    0.53961027569755   -0.40239896188597
H         0.60498620688995   -0.51506931551959   -0.43988663245355
C         0.38645675459952    1.31130558655019   -1.56371071429017
H         0.64837704404145    0.84318796071725   -2.50116787283167
C         0.05968701617144    2.64309429609711   -1.53050890878549
H         0.05185778120540    3.23793010289158   -2.43135813539589
C        -0.26361924577404    3.26291131199366   -0.30743867074642
C        -0.58189347557252    4.63145005641506   -0.19730247097667
H        -0.61925014345542    5.23916591837907   -1.08976294682137
C        -0.84031467315950    5.16740522144154    1.03670066607620
H        -1.08360192106434    6.21133740051001    1.15619491351879
C        -0.80617247181553    4.32824175336213    2.15773812378902
H        -1.00504850736276    4.72516427248144    3.14732850260304
C        -0.27180801759521    2.49315180432661    0.88670704150700
S        -3.47199299710275    1.84140096063587    1.60990561754339
C        -3.77099385207642    3.40026298154938    2.18625526301890
N        -4.10410425256330    4.47730124018919    1.41949124504677
N        -4.43581876692548    5.55235820504118    2.18836717092123
C        -3.90147087426751    3.84335509100336    3.54800162039950
N        -3.62367800795737    3.29632190727601    4.72258902040065
C        -4.36339968702752    5.19794489823437    3.43648198295874
N        -2.88210109297541    2.24539148523733    4.79796112073783
C        -3.96464054336993    4.69342113400881    0.04215920936412
N        -0.47333499635263    1.13523336422511    5.39391569539834
C        -3.83691724372278    6.01443262924681   -0.39023814601436
H        -3.89469945733518    6.80537379088502    0.33999923888013
C        -3.64503586099429    6.29360898171683   -1.72771604455378
H        -3.54720005557280    7.32010087559686   -2.04950972457830
C        -3.56989184753522    5.26421346143490   -2.65272179459602
H        -3.41029222282923    5.48267218551996   -3.69815076204721
C        -3.71511214725280    3.95591227375197   -2.22699170864200
H        -3.67537645417528    3.14664953649823   -2.94069051900644
C        -3.92355328749808    3.66275630318452   -0.89086452306875
H        -4.05304328694700    2.64038239246529   -0.58356510818406
C        -4.66990173584036    6.11771575441300    4.55714341508293
H        -4.93346587185777    7.09621156397833    4.16665628654665
H        -3.80874499525338    6.20150337963369    5.21758479780099
H        -5.49879525637448    5.72189740939940    5.14122394450794
C        -2.72571251328860    1.64539872114167    6.02253092822917
C        -3.74544980094029    1.54805084861607    6.95725902693134
H        -4.68309102401539    2.04090563473836    6.74773292644047
C        -3.58281336516584    0.79251098948116    8.11828886838010
H        -4.40441618807895    0.72130143814044    8.81565782986191
C        -2.40536756762356    0.13917353387169    8.37871306247676
H        -2.28233495021337   -0.45523384659820    9.27134690935138
C        -1.32658915360830    0.23883442247593    7.47846783867315
C        -0.08019383487022   -0.38235947409403    7.69616053402950
H         0.06084011709419   -0.98424028008302    8.58203214533556
C         0.92746705759902   -0.21365416904713    6.78317103548110
H         1.89281578726409   -0.67518838696174    6.91892811979084
C         0.68030492827091    0.55731356727987    5.63988268111098
H         1.45725143394931    0.70648319791820    4.89833486266655
C        -1.47765472316657    0.99730715896415    6.28704301683953

