40
CSD_code = KAZCIX | q = 1 | S = 0 | Stoichiometry = C14H18CuN4O3(1+) | MND = 4
Cu        7.96695674144622    8.03073780680132    3.67814400231192
N         8.86655331188890    6.08825995708438    3.18580776629788
N         7.31802401973250    9.84120749565105    4.35872946208392
N         7.56014204591505   11.73902281859919    5.39641960315373
N         6.84187280059298    8.19605629795366    2.02514609858888
O         8.79920398191822    7.67565733775335    5.29110304413520
O        10.19954749183025    6.39412406556475    6.42138780761992
O         9.58544667322425   12.29895037082018    3.57855716954780
C         9.67308952731455    6.73928271962964    5.39651671329222
C        10.06767117974776    6.09538839784640    4.03327656221716
C        11.17921806767944    6.97128074876205    3.41063053172875
C        10.82294075634069    8.41966506756972    3.42434359181731
C        11.09120455310718    9.20519260026951    4.56439457879853
C        10.73029650159470   10.51620848646911    4.61692662920160
C        10.07178370016951   11.16738193789807    3.49589525671866
C         9.97436275442430   10.37436740553476    2.28161136089116
C        10.28767048098625    9.04737045660786    2.27902520605651
C         7.83152190599179   10.43361984207481    5.42448687879744
C         6.87612007967830   12.00587195026069    4.24999735971562
C         6.71472313985740   10.80966100528122    3.60634251171628
C         5.96628820603722   10.49524846181250    2.35512996444994
C         6.71505311682975    9.53524907780167    1.43425614910920
H         5.92338324512851    7.87034230822115    2.32081075025209
H         7.19186627148282    7.54825621402726    1.32439418168734
H         6.18014696167806    9.47999534796451    0.47971636464696
H         7.72151596095116    9.91399610344424    1.24692121625296
H         5.77762580183335   11.42535243036084    1.81964301164493
H         4.99693094227162   10.05996924584367    2.61741636697031
H         6.55252351051499   12.99034718624429    3.98564843355614
H         7.86562036649741   12.43138719048248    6.06407498658373
H         8.35048535280282    9.91080443445195    6.20287214660212
H         9.10423708812629    5.80029907398436    2.23731769880396
H         8.19664635124036    5.41983934454037    3.56240855362518
H        10.46797804071123    5.08809247922222    4.18634036930498
H        12.08075455411649    6.80896189275342    4.00376103697507
H        11.36368843103990    6.63112144724332    2.38803499742825
H        11.57489910515224    8.74193459479258    5.41227290181769
H        10.91883697397431   11.11419462999832    5.49560659445722
H         9.65096649570449   10.89028936833800    1.38960673646967
H        10.19590351045685    8.47281240005849    1.36642540466523

