29
CSD_code = KAZHIE | q = 0 | S = 0 | Stoichiometry = C8H12N2O2OsS4 | MND = 6
Os        0.77146686454647    7.02675178631197   10.76542662564584
S        -1.09321267365453    5.40140226643331   10.72588248827557
S         1.25829192571835    5.31892308166698    9.03808155605247
S        -0.17068861916497    8.40105135426793    8.93154468079701
S         2.52916357698397    8.57269862891585    9.96416222234989
N        -0.78474920430623    3.63670514400762    8.74581902756030
N         1.69374742776146    9.95652793169839    7.83887402154638
O        -0.36387808733279    8.99149583678751   12.76511223368932
O         2.41402852898779    5.44026813438129   12.74865451986390
C         0.08513332682662    8.23873747146216   12.02788647521339
C         1.77882213633541    6.05321741279309   12.01889232193621
C        -0.26393602392476    4.66122590506690    9.41635045926512
C        -0.09640037768099    2.99910359214196    7.65104582759796
H         0.88359787569066    3.45003445968398    7.51457298002302
H        -0.67453520543110    3.11222518900629    6.73103682182535
H         0.02482611101863    1.93477574211715    7.86281196789777
C        -2.07571407317322    3.07801169635537    9.06100731217020
H        -2.53257648139369    3.63448519879554    9.87558311864202
H        -1.96442219226363    2.03295743621370    9.35862409214119
H        -2.72325833614517    3.12769815097718    8.18300112930745
C         1.38155337033654    9.08223101872538    8.79210691916746
C         3.00869292544151   10.53417967649992    7.71522230342943
H         3.66278922728469   10.13788370845821    8.48788889006092
H         2.94689730934599   11.61967843293370    7.81915846362751
H         3.42559841855865   10.29694817961926    6.73400988587304
C         0.73891881435473   10.40064659471777    6.85403569055854
H        -0.22919493575018    9.94234731860821    7.04123647675236
H         1.07986945217570   10.12351783757014    5.85391747378588
H         0.63696891884825   11.48677081378497    6.90355401494140

