41
CSD_code = KAZKON | q = 0 | S = 0 | Stoichiometry = C15H17Cl2N5OZn | MND = 4
Zn        5.76543354693826    2.40283403818020    8.50671553763595
Cl        4.56543634047208    1.27289392478543    7.00152737366562
Cl        6.31961347012034    4.49378319204995    8.71885996408682
N         5.05575041267112    1.79629933968068   10.39937861521405
N         4.66636168680382    0.58324716281644   10.79372323359281
C         5.08181128934215    2.56612067012389   11.47615683339199
H         5.36910218597336    3.59584632672241   11.39498578968130
C         4.69888315088112    1.83237607812856   12.59861727407973
H         4.61678787082616    2.17837454161475   13.60757753370708
C         4.44422401521758    0.56681472297765   12.11799961444354
H         4.12601062460068   -0.32341865644976   12.62204143167704
N         7.54135767102102    1.29986980339914    8.79317417600597
N         7.70340858145043   -0.02330681414240    8.83311989523138
C         8.95379407073459   -0.33402414107623    9.21199398212261
H         9.27473485357503   -1.35197957983301    9.30536054227082
C         9.63074982205453    0.84713579495461    9.42184863317310
H        10.64901849441764    0.97316857808487    9.72474481336003
C         8.69564163620519    1.84425962512787    9.14526236188628
H         8.79860060570892    2.91078097126470    9.18234438269480
C         4.56336134266540   -0.54361525048155    9.88025025620407
H         3.82673098699031   -1.22734909796791   10.31832170786138
H         4.20302287081085   -0.16835444629418    8.91655683846261
C         6.62356100745333   -0.95495990051641    8.54967292105183
H         6.00660144957392   -0.52808595911106    7.75192697443096
H         7.09901072327332   -1.88073221573477    8.20477780752103
N         5.78178743110359   -1.26310300384834    9.66546848335040
C         6.41039074929016   -1.83127508588395   10.81451298608815
C         6.28333713301607   -3.19914663480212   11.03672902127493
H         5.71562188553292   -3.79232480639390   10.33695875325328
C         6.87274875343685   -3.78544804541729   12.13400096807536
H         6.78201657633921   -4.84356292526174   12.31930919997565
C         7.60718632796024   -3.01563823673488   13.04108551932754
O         8.14443382859349   -3.69011586274947   14.08778279635604
C         7.73667520190709   -1.64853232120055   12.81942190281525
H         8.29728512179217   -1.02460398919547   13.49693287002913
C         7.14078558730540   -1.06598611273287   11.71324510766609
H         7.25464906705323   -0.00205734992451   11.56164939464441
C         8.89023073426815   -2.97684615459260   15.04602732645907
H         9.77433027359297   -2.51004881927776   14.60100313697844
H         9.20531962293204   -3.71517024231091   15.78131929512677
H         8.28289299610229   -2.21191911797809   15.53951474512503

