80
CSD_code = KAZLIH | q = 0 | S = 0 | Stoichiometry = C25H47MoNO2P4 | MND = 6
Mo        2.87058410168147   14.51165104797044   14.04330433878265
P         3.34517307487948   15.53179615838013   11.91287903218632
P         1.28735389565615   12.99675655198696   13.02965466453817
P         1.82209559716545   14.31413151815121   16.20330679063096
P         4.81510030994774   15.48177767555097   15.08201064527936
N         3.98521902896254   13.20837612667455   13.74227843505277
O         4.76208403411487   12.30825960677565   13.55897621169269
O         1.46816042296305   15.98438798463988   14.73843880204226
C         1.48276306849682   17.34472405796286   14.54131042908074
H         2.52216473570398   17.71659947749406   14.39890829804134
C         0.87890261497651   18.11519625309617   15.71306186284010
C        -0.44485289171967   17.90384488199183   16.07988350287678
H        -1.04433731288558   17.20820270543985   15.51145260677282
C        -0.99593338247142   18.58194068842125   17.15106584062709
H        -2.02551198783417   18.40425354516055   17.42812559534038
C        -0.23529001316349   19.49426313052646   17.86346181523170
H        -0.66591911067706   20.02566698314532   18.69972889247509
C         1.07714966143976   19.72773978762912   17.49274994404336
H         1.67476137943952   20.44498269027594   18.03754378412424
C         1.62934828975619   19.04250884196428   16.42409892511754
H         2.65646909197545   19.23037820722021   16.14062845417239
C         0.65588280216602   17.76679299533066   13.33468205235991
C        -0.34537030215036   16.92923466552491   12.86478482964774
H        -0.46773333457817   15.96654971289711   13.34108547282938
C        -1.14833028826678   17.31554697943628   11.80598691237187
H        -1.92697593013759   16.65564049137337   11.44823859909661
C        -0.95455348298164   18.54798218084382   11.20560433591874
H        -1.57794408220868   18.85282513639101   10.37744741604304
C         0.03982514016638   19.39213526344937   11.67323395090699
H         0.19075495413727   20.35640898323705   11.20886481953067
C         0.83740094192678   19.00722765886281   12.73589006141752
H         1.60103678591320   19.67664284444293   13.11041784063328
C         4.64956412171856   14.71270997130582   10.92035362195404
H         4.46168018702182   13.64103692009812   10.90331788261839
H         5.61738126826296   14.87753038286663   11.38733546930693
H         4.66053916199160   15.10598973144307    9.90313071188544
C         2.04718498382568   15.70002106163149   10.61781292112691
H         2.44593130659522   16.23141887241238    9.75230299160544
H         1.21194133623090   16.26243103503439   11.03215372889956
H         1.69128052658707   14.72019132429159   10.30721001423214
C         3.92329290841568   17.28007550326724   11.82982921397875
H         4.63122466766182   17.48516667197441   12.63064867552894
H         3.05919343061545   17.93239639763054   11.94959758061359
H         4.39268542465327   17.47982771750307   10.86558132846881
C        -0.39601665281368   13.29429716133246   12.33795931682987
H        -0.34739076223591   14.07921922106786   11.58525731969445
H        -1.07196689021581   13.61306394392656   13.12995953709609
H        -0.78252618632308   12.37863546929061   11.88848738855818
C         2.02248465658836   12.07885451518325   11.62123892943508
H         1.35749263031020   11.27620022348060   11.29988182268820
H         2.96538214227693   11.65093575429879   11.96078495472292
H         2.22075398526792   12.74147228223649   10.78211708246691
C         0.92824975626578   11.52683334796884   14.06468261788618
H         0.32779621361400   11.80841162187757   14.92696257356398
H         1.88751939344438   11.13693378576293   14.40704140761918
H         0.40458727585618   10.76180133804579   13.48922881574829
C        -0.01680407649216   14.26442070707686   16.26053116203619
H        -0.40279748634093   14.02216133607039   15.27266142857573
H        -0.38066013718000   15.24946189876722   16.54370308847756
H        -0.35750975669951   13.52277103438880   16.98294648994025
C         2.14997313158164   12.79897682399345   17.24010996705941
H         3.22359178473348   12.65836758921815   17.34993427230568
H         1.75436923850049   11.91502752227663   16.74569494005111
H         1.70036552242109   12.88012549021781   18.23087466793012
C         2.11688777301311   15.52918633026724   17.54875756463804
H         1.40200975831234   15.33285333878090   18.34981314942009
H         1.97068292745094   16.54069155002999   17.17984015230420
H         3.12500510262978   15.42478488953267   17.94596669591001
C         5.46019063034808   14.36993855425641   16.38737669033037
H         6.45580716982341   14.67947443517312   16.70869262656191
H         5.50865772780868   13.36835008334632   15.95897584229404
H         4.79098365641950   14.35317479644527   17.24361993285162
C         5.05022241403191   17.11485199709994   15.90200208546890
H         4.27226158266865   17.26270340086617   16.64831851467860
H         4.97425427263413   17.90630070429604   15.15621541444549
H         6.03018891679355   17.16368613119749   16.37880855914997
C         6.33065790056784   15.45642456538748   14.04571193004479
H         6.26238208280349   16.16953642505362   13.22702099917946
H         6.42845090183611   14.44976041465737   13.63952195449546
H         7.20788626430814   15.68909089545480   14.65122080366017

