74
CSD_code = KAZMAA | q = 0 | S = 0 | Stoichiometry = C26H41MoN2OP3 | MND = 6
Mo        6.93958411698836    2.25007065240841   10.33048691347424
P         7.22924679103454   -0.06528850515303    9.78368783573785
P         4.49341198304374    2.45743950372884   10.16889798598155
P         7.30293166545984    4.57605168761895   10.87671198133786
N         7.04027461710279    2.61303640720339    8.63928870253251
O         7.13137217995689    2.85326274084566    7.48458117526713
N         7.05740790732378    1.87971564150858   12.60836219133014
H         6.97819269635120    1.22320921866483   11.80969537032406
C         9.44354446418216    1.90889665079040   12.07093230072426
C         9.01750666665255    2.13975353466452   10.77275723507421
C        10.03557102897995    2.31890635135302    9.80552782355706
H         9.73776866327583    2.52133628231465    8.78275486101322
C        11.36565422676408    2.25181768141481   10.10348377062400
H        12.11341952090164    2.39516306904338    9.33361033609078
C        13.16067336588404    1.91181593708995   11.75527221098299
H        13.89225456654732    2.04212826317913   10.96912307457472
C        13.55677249821653    1.67239266585018   13.04134884076372
H        14.60604395440885    1.60902062236701   13.29205201400175
C        12.59304654379881    1.50838679538745   14.04575562845780
H        12.91275249881869    1.32060037775049   15.06159811290843
C        11.25960745981191    1.58363924173216   13.75234654987701
H        10.53949106120331    1.45246652540437   14.54715548197914
C        10.81235243581814    1.82614673133579   12.43340013334463
C        11.79593739031512    1.99512858833614   11.42106398483491
C         8.39988704322316    1.76446632656090   13.15677283426674
H         8.51123857577859    0.78726009392054   13.66575580384529
H         8.54796450431976    2.54277290419657   13.91572245052405
C         5.98872318154346    1.66719254866451   13.47472390918433
C         4.99730701984328    0.74122849698654   13.14338960993107
H         5.09431006254654    0.17723748041859   12.22047006128259
C         3.91087536890790    0.53728121777377   13.97174042778764
H         3.15484346111948   -0.18597367328617   13.69928351472049
C         3.79474928091209    1.24859480589549   15.15498639902695
H         2.94744197856804    1.08960290179220   15.80440380020962
C         4.77832816925938    2.16116339593357   15.49955575016408
H         4.69566930749143    2.71806899417146   16.42160598820697
C         5.86788523799920    2.36837943300128   14.67587858251743
H         6.62260393743694    3.08785738585797   14.95730315958908
C         5.91075449807916   -1.21891101227517    9.21538060866012
H         5.46147305177302   -0.80190316998123    8.31446730736197
H         5.14179802123970   -1.32580830546783    9.97945828729673
H         6.33323031062439   -2.19856358994349    8.98791487380322
C         8.03717886156872   -1.13346893531866   11.03949171007367
H         8.26902608209365   -2.11009292193748   10.61251946277896
H         7.38380984824658   -1.26932737760856   11.90387342305523
H         8.96245784466366   -0.65142647396546   11.35934053811068
C         8.38867377637294   -0.26699460966376    8.39542208051544
H         8.49940026478766   -1.31775436414395    8.12382859696406
H         9.35081572962405    0.14764206165892    8.69198220550158
H         8.00926374529468    0.29811547657068    7.54416637240872
C         4.10084088788068    3.50078285275174    8.71972361217118
H         4.44956950167226    2.98152643418529    7.82658517105207
H         4.64070163534769    4.44325696221734    8.79464376267967
H         3.02858225176048    3.68611880047561    8.64193276930955
C         3.32549742744251    1.08323964775982    9.79462376881256
H         2.32020749248794    1.48084030869047    9.65043035471117
H         3.30785421581108    0.36452490154679   10.61155110100431
H         3.64943669296083    0.58459256723249    8.88328594406261
C         3.48577293232301    3.28669247879703   11.46267894261581
H         3.97870961701129    4.20157764399299   11.77868790382197
H         3.38988772229987    2.62991527947169   12.32540201273718
H         2.49426925098816    3.51973674380497   11.07287830032763
C         8.43239866747847    5.01121928743655   12.24903634842150
H         9.35553644715921    4.44363683540927   12.15171212995576
H         7.95644108184189    4.77062211733672   13.19865483640143
H         8.65331491941498    6.07882709025879   12.21938595481072
C         8.18254419511153    5.34939288801058    9.48325488137809
H         8.40723680781412    6.39654099854906    9.68939034497373
H         7.57037800221635    5.27172195078732    8.58484686874967
H         9.10567491856401    4.79403589567753    9.32578976603629
C         6.04000972543877    5.88170699656214   11.20276236374785
H         6.51508804742896    6.86340433643542   11.21217297197313
H         5.58031344875142    5.70187607113517   12.17473206752340
H         5.26940664466294    5.86457515684919   10.43440555013847

