37
CSD_code = KAZMUV | q = 0 | S = 0 | Stoichiometry = C14H15MoN3O4 | MND = 6
Mo        7.28959930985742    5.60639286307125    1.56969504662037
O         8.19839809721313    6.26537571917375    0.04791608800795
O         8.48214019680258    5.40897964974230    2.69208183273140
O         6.44405588347991    6.98584878257634    1.97108359716872
O         7.39902786940770    3.87732046309394    0.84121841862900
N         5.71603760780601    4.63224992736416    2.66808474498163
N         4.48564693713092    4.95411302962434    0.74661609487003
H         3.57938917350056    5.05221588636068    0.28548423278839
N         5.57814290763837    5.48724195766076    0.16122686619486
C         5.80323259494345    4.24026015340198    3.94002340848987
H         6.78915715175609    4.33954286362306    4.37917879995376
C         4.72154884202964    3.75577180237475    4.64707371856223
H         4.83417933659698    3.44883959446509    5.67337509166190
C         3.48363626907275    3.67742232899502    4.00865155750770
H         2.61671632973909    3.30835871033244    4.53500195146132
C         3.37992940661952    4.08137319291039    2.69797166146853
H         2.43937799809935    4.04253270466683    2.17056392419438
C         4.53032497094454    4.55797603755442    2.04596801286831
C         5.47282333386237    6.08192602404907   -0.97081124214457
H         4.49036799461761    6.14060934409850   -1.45752650282246
C         6.56172955041510    6.71034889566990   -1.64811021831352
C         6.31500729016692    7.29652040010828   -2.90392296445040
H         5.31388617154064    7.23107361254927   -3.30927464813043
C         7.29216432842721    7.94315039929553   -3.62332863855783
C         8.57844595468340    8.01572550840438   -3.07180584907574
H         9.35760840368541    8.52315112255169   -3.62249812908154
C         8.86034192367120    7.45766927048581   -1.85139234433308
H         9.85116458749548    7.51724752491252   -1.42403729539594
C         7.87431759743765    6.78736851944501   -1.09468328243450
C         7.01262941791566    8.56401181939278   -4.95875113060365
H         7.65054501097782    8.12293947151897   -5.72357615935415
H         7.21961961163212    9.63294156497636   -4.92966812895397
H         5.97468537885868    8.41959120436833   -5.24663378242015
C         8.24265130053200    2.81810447373049    1.12304957899409
H         8.94320607368195    3.08746837354041    1.92685614025334
H         8.81843404946541    2.54746244238296    0.22576298575025
H         7.65983113829529    1.93427436152849    1.43243656291336

