40
CSD_code = KAZNIK | q = 0 | S = 0 | Stoichiometry = C16H18ClIrN2OS | MND = 8
Ir       -0.72072021804379    3.29537358203467    3.66987739972382
Cl        0.92336989681474    4.09572818917783    2.22319741498862
S        -1.22000653753033    6.73756942611219    4.35021255969598
N        -0.60938461462605    5.21433002643824    4.49476525492602
O         0.82561921728390    3.00938076563367    5.10650312275264
C         0.41820508201784    5.27918957180370    5.35120355748884
C         1.17747661279101    4.12132379666876    5.67091020409301
C         2.20908512892517    4.34320970330784    6.57724634740246
H         2.83866758546696    3.51977382717430    6.87286343041067
C         2.44211512180349    5.62421397660240    7.09464663446596
H         3.26166638131136    5.73411553300117    7.79058910181799
C         1.70697755014553    6.74564823092184    6.77558797342551
H         1.92930598558015    7.71305306618226    7.19146081123611
C         0.65333075877426    6.58261412478299    5.86807729492583
N        -0.22606113097469    7.46384294304497    5.36642826177320
C        -2.94138823338724    3.02139274101240    3.46223382586590
C        -2.29734449010455    2.82310921271742    2.20280477121711
C        -1.41281909450933    1.68681634610025    2.33320510177344
C        -1.50564328413879    1.21284020038503    3.67468553895619
C        -2.43212721890807    2.05195214041401    4.38314454287445
C        -4.03077439390185    4.00321126904406    3.74381242859312
H        -4.99664390547113    3.54690241413971    3.52102309753461
H        -3.92572611822061    4.89450009887212    3.12980480870795
H        -4.03146952557088    4.30205495253501    4.78939392433260
C        -2.61436484056714    3.49541122566878    0.90724204950164
H        -1.69716285852101    3.74480967525638    0.37776313983185
H        -3.18322489038212    4.40768484678805    1.06396930547943
H        -3.20007095025756    2.82494955067151    0.27644575429466
C        -0.68559555077939    1.06329472194134    1.18835368982250
H        -1.40339183525990    0.63204358706535    0.48914232849977
H        -0.00972635328883    0.28338756109624    1.52667807579815
H        -0.10161603218894    1.81401325923627    0.65897818429858
C        -0.84750275278853    0.00966055660425    4.26300702005146
H        -0.19869362130877    0.29965379070620    5.08828650536904
H        -0.24447096665137   -0.50939377932144    3.52384223893363
H        -1.60444510544310   -0.67471345116421    4.64670102948802
C        -2.91875529001206    1.79577968009664    5.77120707686377
H        -3.33613470470316    2.69564732570418    6.21649845645249
H        -2.10537445715370    1.44273199320735    6.40088466133018
H        -3.69668034621715    1.02979331833767    5.75802307500477

