99
CSD_code = KAZWEQ | q = 0 | S = 0 | Stoichiometry = C44H46Br2FeN2P4 | MND = 6
Br        4.01568440789067   11.01479981567449   28.57202496152743
Br        0.51380371767930   14.07308019685272   29.05440757587107
Fe        2.38969774447186   12.69180436406690   28.75840965628948
P         2.44478683233776   13.47791791544597   26.68737041684455
P         3.79067267933562   14.22243598513022   29.29238415038464
P         2.58038751300784   12.48423308194598   30.89192244446970
P         1.02713489061566   10.99145613983164   28.73116039560951
C        -1.62687811834951   11.28537452385067   29.73737975747691
H        -1.24197836201758   11.19062749807390   30.74246979122636
N         3.08332798565639   14.95705257961802   31.82922411951969
N         5.12042213721478   13.31611533773947   31.45600645608692
C         0.91919727944565   13.64282584979317   25.70007008681771
C         0.62526583685744   12.62304160032154   24.79484811182687
H         1.32015640099057   11.80473575613883   24.66085651689149
C         3.45363447568920   15.73017834192082   32.92608615846249
C         8.25765426371211   14.31036515423778   33.14335017956556
H         9.26920055496871   14.58168656821639   32.87727410406440
C         4.31191974996084   17.16208385303668   35.17738900000452
H         4.64615162835238   17.70710742035165   36.04667991227026
C         6.56938162281376   13.94265877134098   34.78690393256604
H         6.24282299156279   13.94212936366199   35.81645992736790
C         2.11470082587445   13.90300809692313   31.98236758845868
H         1.08282821815534   14.22034014476237   31.75933743484992
H         2.15589013108775   13.51471553698999   33.00777290776402
C         5.39042690249952   12.87353893481252   23.17110145115742
H         6.07502537807993   12.76428058106949   22.34280933197622
C         1.52721038318026   11.09900431217952   31.49863223585204
H         1.98296241630676   10.60788258205074   32.36554786319227
H         0.58988563578097   11.57437633202803   31.81598458508339
C         3.21154757738092   15.49845121491344   30.49850299443713
H         3.94270768529609   16.31238066691576   30.49647301516801
H         2.24875181063302   15.90305149616418   30.14086259666799
C        -0.78113745902458   11.19715138878557   28.63912287036890
C         4.25388791515438   15.20427052804872   27.81012173696092
H         4.61418881956047   16.20462082576989   28.07058537840616
H         5.05173135448060   14.65372860116660   27.29279688618215
C        -3.49564117803134   11.65908262408417   28.27678292084085
H        -4.55117851807609   11.84211158903996   28.14011815805415
C         3.40661255112230   13.84087595123327   24.10892376146672
H         2.54513771145330   14.48688738764971   24.00204698566360
C         3.61626433643078   13.14995761672223   25.30461851787000
C         5.61078007566172   12.19387194439102   24.35392905120652
H         6.47045972041107   11.54907950899414   24.46055687782428
C         1.27776111025974   10.11464950540554   30.35585001421261
H         0.41250588001883    9.47810533010878   30.56587499460770
H         2.15228640093595    9.46860989201189   30.21466640272101
C         5.07613464229841   17.14533025895235   34.02271179543710
H         6.01758194850919   17.67369526127717   33.98831627840830
C        -1.43121543924946   13.70395601224709   24.20833721969359
H        -2.34491485946170   13.72798247314022   23.63252459723726
C         3.11273512883049   16.47391376973566   35.19858581259843
H         2.49569243644167   16.48844672187744   36.08556032008153
C         0.02312251069412   14.69579390213916   25.84335748582650
H         0.21973101312030   15.49750975411039   26.53733098775115
C         1.30023109324021    7.60987999049984   25.63799396421134
H         1.35179444168885    6.82200021782169   24.90099330716048
C         4.28345396844941   13.70058612090963   23.05300191342170
H         4.10351698643235   14.23952128681526   22.13375294538311
C         5.67767274053975   13.58811534373021   33.79683144881166
H         4.66631545820601   13.33594589766298   34.07790462932584
C         5.37703704715098   13.74098396338841   30.10224367030971
H         5.87891764429050   12.97503666030581   29.48648766711266
H         5.99288681855143   14.64865583783618   30.11538642282983
C         7.86506110690270   14.31389118089731   34.46904976807492
H         8.55878960075217   14.59808127925988   35.24523215831267
C         6.05679937196847   13.59475970084722   32.45130549885161
C         2.68188116011293   15.77112267988816   34.08900109821415
H         1.72688083071120   15.26917031626819   34.12961883430625
C         4.65725493899700   16.44145020489186   32.91361271339837
H         5.29350449280375   16.42114384727222   32.04166842659602
C         1.97913046974828    8.79840511953448   25.43070916294679
H         2.56242971822789    8.94455137068959   24.53307918554879
C         0.55036192061091    7.43069613348158   26.78976957522364
H         0.01558808879691    6.50517394276381   26.94780316529192
C         4.73175980976652   12.33142862285991   25.41690951420751
H         4.92726824028647   11.78763376036217   26.32578340814504
C         1.91360414740795    9.80018358104744   26.38040007204158
H         2.45203046945006   10.72938122454539   26.23122853962430
C         1.17457769233488    9.62210953102613   27.54093336759332
C        -0.53877195543277   12.65600855649415   24.05170819934273
H        -0.75050829877263   11.85850264800691   23.35362487080529
C         2.99124415631482   15.24144992178752   26.95058476770887
H         3.17080269075312   15.72655617225784   25.98667207681543
H         2.20265418947710   15.78411342424855   27.48041612364881
C         7.37147855467689   13.95093488594912   32.14497375020230
H         7.72036907502988   13.93140149661303   31.12354202447729
C         4.25694449030326   12.16824525125124   31.60837095734816
H         4.11016881106130   11.95741602880495   32.67267089949510
H         4.69303963424298   11.26920065375331   31.14295713234234
C        -2.65502257570883   11.58402168116069   27.17843532383471
H        -3.04721344009010   11.71075800207521   26.17990052580408
C         0.47828778523804    8.43392146351616   27.73728391902445
H        -0.12363264102783    8.29750121158534   28.62544412032917
C        -1.30659593977490   11.35368787904035   27.35952435151708
H        -0.64430112734426   11.29811572938815   26.50538294919577
C        -1.14443180129489   14.72121993886606   25.10120906521585
H        -1.83395824597904   15.54263951372260   25.22719952402868
C        -2.97930779342331   11.50785711312876   29.55195013420138
H        -3.63160312373066   11.57376975078069   30.41086011454408

