106
CSD_code = KEBDED | q = 0 | S = 0 | Stoichiometry = C41H58NO4PPd | MND = 4
Pd        0.63245603013811    3.16605580803320   12.48516941960963
P        -1.48236696915661    2.22828642881331   12.52007810379552
N         2.33780509521908    3.76106688732260   12.22954894996864
O         3.01142129637937    4.13916235452624   13.17248669916163
O         2.66016478294776    3.88299019043788   11.05606761584639
O        -2.54627895904466    7.15875961161769   11.92212315982967
O        -4.50703913813894    2.02285210344112   12.29501644659756
C         1.76922508107976    1.46925166428123   12.73049110447398
C         2.09343957058704    0.65194225954786   11.65253394284398
H         1.82400099820476    0.94093735498968   10.64140413747369
C         2.80555112942352   -0.52245458241647   11.84541656245359
H         3.05095815028498   -1.14658912555373   10.99676587943552
C         3.21266094334919   -0.88990116645564   13.11558557375470
H         3.76641681410566   -1.80598582054327   13.26523670137639
C         2.92996603469250   -0.06395692097677   14.18923761405411
H         3.27105781222188   -0.32971022547671   15.18033288114402
C         2.21960884884111    1.11120001499051   13.99816018484234
H         2.04842372668713    1.76161374632805   14.85270653194355
C        -2.71634820371092    3.53585865286537   12.16681634917027
C        -2.22187165429577    4.83309288900564   12.04188294448385
C        -3.11669893219949    5.91772682662945   11.95167729384293
C        -4.47926715327149    5.68213147193837   11.92801206063704
H        -5.18358391387106    6.49467265392489   11.84984069092805
C        -4.97033052433171    4.38762685320657   12.01582332153175
H        -6.03820824123069    4.24022345824083   11.99446614756232
C        -4.10555637531491    3.31713656933733   12.15424259774165
C        -3.38551356395321    8.28585997705049   11.90678978878629
H        -2.71720614358291    9.14547199764143   11.91737211861124
H        -4.00397235337276    8.32231032229936   11.00328720754353
H        -4.03314076645830    8.31976002240352   12.78946130531132
C        -5.88213813493475    1.73575780974896   12.33330281354087
H        -5.95438091419652    0.65698508618336   12.46488171693364
H        -6.37560328483755    2.23524614253997   13.17351566214509
H        -6.38091041315437    2.01590594957366   11.39978953733966
C        -0.77639744466857    5.21943754415454   12.04367989460633
C        -0.15575314881199    5.61609823797944   10.83682836316756
C         1.03188049018833    6.33304182497696   10.88313409201867
H         1.50115470844041    6.62726140713593    9.95674238234846
C         1.62810183591059    6.70885024719105   12.07978807298955
C         1.03085177179965    6.29973093384559   13.26117983141142
H         1.47739129795738    6.57721582173832   14.20245207960810
C        -0.14504408064327    5.55064271426372   13.26906762392722
C        -0.78104732618166    5.34335501743022    9.48643507090108
H        -1.61579321035107    4.64886607350791    9.62818918901082
C         0.24071283587334    4.71870592813455    8.52761761266644
H        -0.26554318877366    4.17073630546364    7.73593627774090
H         0.85241236783839    5.48848157265530    8.06372711136340
H         0.90770334393578    4.04237268024720    9.05932354606761
C        -1.34215880870770    6.63280993739903    8.88093247660349
H        -1.79167983018547    6.42383455343252    7.91192559720443
H        -2.09700999566010    7.06616735616161    9.52943862160382
H        -0.55088308432302    7.36617242675117    8.74453038481809
C         2.86359064084174    7.57321756183459   12.05179091489774
H         3.40879436007543    7.33616215314891   11.13155597468383
C         2.43674760520468    9.04416028201511   11.99505093615110
H         1.81024181191756    9.22935591157739   11.12485042473303
H         1.86947040997032    9.30528000920457   12.88659142718755
H         3.31096186033298    9.68909547374767   11.93877312880131
C         3.79967755744083    7.32753339135637   13.23321897946500
H         3.95668902487015    6.26041455271391   13.37156696183624
H         4.76161040851974    7.80059046799415   13.04808025638595
H         3.39219136749866    7.74519232569945   14.15153277850507
C        -0.79255669216932    5.22980082476008   14.60263981496825
H        -1.68485184238379    4.61910256107527   14.41792378978282
C         0.17471937710941    4.42516740652176   15.47885322465724
H        -0.31644518795257    4.10293570627084   16.39604186774802
H         0.52487502484647    3.53827256562963   14.92236820010494
H         1.04320757954312    5.02096041441020   15.75027863229999
C        -1.23997719646645    6.51479651802953   15.30200993475655
H        -1.89606162663821    7.08675924606456   14.65002843684065
H        -1.77801122737720    6.27710177671134   16.21766494484878
H        -0.38541036941549    7.13648187236083   15.55648302868261
C        -1.46823218311167    1.04943316560071   11.07457970295373
H        -0.73263932579433    0.29230156443402   11.38998906263584
C        -2.74884429638265    0.33496352043418   10.65448713161895
H        -3.19117290357932   -0.20362536519753   11.49293244576992
H        -3.47714191068091    1.06397576197637   10.29739221720247
C        -2.43382240732724   -0.65193609502466    9.53007574437481
H        -1.72814078729486   -1.40226464919260    9.89479899434549
H        -3.34775107968907   -1.17060688798499    9.23122414672531
C        -1.82915401525509    0.06838130063052    8.32850528537242
H        -2.55892024080186    0.77544792172628    7.92587984935944
H        -1.59421636895065   -0.65212680686597    7.54232923485001
C        -0.56829104365610    0.82124579013485    8.74280923722398
H         0.18364316195149    0.10372213867131    9.07858192909150
H        -0.15698070564624    1.36337335833756    7.88901292581892
C        -0.88843651215569    1.79448849807636    9.87232689133781
H        -1.62428180657352    2.52065373317077    9.51792186918287
H         0.02100728290587    2.34256045552909   10.17886608056347
C        -2.21447407953414    1.18501795447972   13.87914400973223
H        -3.04419510748164    0.60537548223361   13.46683200979283
C        -1.12847761529358    0.23175384889324   14.37952547533349
H        -0.73780201837626   -0.37253395017426   13.55754184614171
H        -0.29602432795855    0.81740910950668   14.77943954010077
C        -1.68057919920172   -0.68148660981010   15.46993977786908
H        -2.47946085465041   -1.30128110356488   15.05464544928976
H        -0.89143434023237   -1.34704730543276   15.82479619914397
C        -2.23073721138732    0.14142673810210   16.63056009648166
H        -2.65184183938537   -0.51936614755294   17.39117666479727
H        -1.41609820441454    0.70507823994874   17.09025471466517
C        -3.29829821396046    1.11148659618961   16.13354741393729
H        -3.66982873723526    1.71534087034479   16.96470389116864
H        -4.14164597885296    0.54736855735355   15.72723343752788
C        -2.72683647142232    2.02110206437821   15.04896975216897
H        -1.89986582918708    2.59587958856876   15.46877053904537
H        -3.49402692388283    2.72173979296715   14.71105148428254

