34
CSD_code = KEBFAY | q = 1 | S = 0 | Stoichiometry = C10H14N3NiO6(1+) | MND = 6
Ni        2.74325234180511    2.20944682838930    1.47541161518523
O         2.30780867823187    4.24960885919755    2.11703071844704
O         2.02605332250681    2.90737074953666    3.73850044979012
O         1.52101653864663    4.98034419969790    3.96683537294380
O         4.33449342687498    1.97391127337117    2.69754817611900
O         4.29469929932263    3.58509299442645    0.30234273997995
O         3.53838563913017    0.90797362344511   -0.24110846144983
N         1.28782009690951    2.42271762777610    0.49595671438618
N         1.63749284668636    0.53669422808247    2.24280751966665
N         1.92943975373945    4.07192395609859    3.31411992419002
C         0.17656880454614    1.75476536641490    0.85281333044241
C        -1.02551722435500    1.98342956413793    0.18665080156474
C        -1.06848269586750    2.89696565669287   -0.85140317110341
C         0.09837787728365    3.55007706438517   -1.21819914370892
C         1.25875448061833    3.28234177258877   -0.51111166522368
C         0.34990858514518    0.78147781271572    1.93524663237968
C        -0.69338597721854    0.15180390672805    2.60633990457340
C        -0.39637202362977   -0.76005964855230    3.60632218302378
C         0.93165030783291   -1.02438391012792    3.89691094724702
C         1.91319134812376   -0.34507919854496    3.19014741236987
H        -1.91273779707467    1.44582531306433    0.47771154070990
H        -1.99499325142672    3.09265277986229   -1.36816777415278
H         0.11343876901152    4.26018643969797   -2.02848679547499
H         2.18765079108314    3.78077170983335   -0.75623803568952
H        -1.71876778979262    0.38411326788188    2.37125545593487
H        -1.18809499033219   -1.25294552512028    4.14850110274232
H         1.20632479799815   -1.73366796268502    4.66035408694467
H         2.95739004470189   -0.53540158953893    3.39888867277169
H         3.95358015687208    2.29233962618714    3.53690420243603
H         4.71094385651387    1.10577472129548    2.87465767015843
H         3.95304659123234    4.43486754492519    0.61351724828477
H         5.16210013173087    3.49118663211962    0.70986086663463
H         4.14175937186364    0.18510460875492   -0.05002132328945
H         3.99520389125550    1.51076970727216   -0.83919891883789

