29
CSD_code = KEBGOO | q = 0 | S = 0 | Stoichiometry = C10H13OReS4 | MND = 5
Re        3.26159193965504    8.30711018629399    2.11908715202259
S         3.92370996346366    6.11195683485804    2.32416987113673
S         3.71001632826974    9.21927001271339    0.05540888160856
S         5.75364560836810    8.87996463374058    2.66120183362154
S         1.23667398119703    7.57954845389542    1.23658223958955
C         5.53828454998979    6.19435173006566    3.18213416500284
C         6.46855564753296    7.19203976975399    2.52337546638154
C         6.26459060385803    9.64794305506405    1.07254400428965
C         5.09087502161358   10.36072338308798    0.43145298248239
C         0.66656291236138    6.33644207885823    2.35572082406477
C         0.80281034797879    6.51637903585598    3.72791413002562
C         0.32544948729822    5.55121825987842    4.59364938639697
C        -0.29543300990715    4.41475952770411    4.09872871868403
C        -0.44321004110530    4.24711716050524    2.73170291497054
C         0.03447416669943    5.20511877371868    1.85601894441429
O         2.76037981315913    9.27428468123863    3.38455629569536
H         5.35054474712019    6.45630480349613    4.22431187042025
H         5.96019831704566    5.18933963017718    3.13337522647649
H         6.59650756738671    6.95564876777158    1.46598521920859
H         7.43933017278086    7.21238317454893    3.02098536463878
H         7.06390517734869   10.35118280120449    1.30932806519702
H         6.64450949377218    8.86221474015962    0.41981381575586
H         5.39045194648078   10.80306862479253   -0.51989500584888
H         4.69975608745357   11.14168645469214    1.08477448150576
H         1.28533366829231    7.41445170259792    4.09833258459682
H         0.43614061110695    5.68746646588741    5.65922279274153
H        -0.66508872419408    3.66156797865510    4.77868122560464
H        -0.92941992743446    3.36404967792699    2.34398607811769
H        -0.07274645759266    5.08430760085747    0.78925047119985

