55
CSD_code = KEBHUU | q = 0 | S = 0 | Stoichiometry = C20H26NiO8 | MND = 6
Ni       -2.14194474017238    3.82369612459885    7.71527879742121
C        -7.23449439155292    8.79817904652836    3.36678189893704
C        -6.99816326590976    8.74431717991112    1.99776203723481
C        -7.69759416146551    9.58326912249238    1.14475525345741
C        -8.63081079656052   10.47573358109279    1.63614724386319
C        -8.86846137262645   10.52898897844855    3.00138693804008
C        -8.17911942146341    9.70008115351767    3.86050867521778
O        -6.61090674601599    8.02835209312792    4.30022261678780
C        -5.62394654669962    7.10964673520773    3.88413967606474
C        -5.07144226046582    6.43267337757860    5.13395211538166
C        -3.98538824018830    5.42077029315660    4.79187558256442
C        -3.40682989223619    4.78118697876868    6.03109621724473
O        -2.42206238481997    3.98708609558063    5.91523664204109
O        -3.86806079491008    4.99471840435370    7.17194290739585
O        -0.63069749025208    2.16863851051890    7.30907719344658
H        -6.27639391476872    8.05711001131867    1.58438198835603
H        -7.50431377922411    9.53261728395109    0.08303407437701
H        -9.16962212362643   11.12559192214120    0.96356449472126
H        -9.59558130006810   11.22236705332174    3.39747707705139
H        -8.34975087693245    9.72774633806777    4.92516032591247
H        -4.81726646050324    7.63313761316077    3.35089841000263
H        -6.06152700211323    6.36051265489020    3.20803986312343
H        -4.66754261804782    7.19499670525982    5.80069210511382
H        -5.88634814436007    5.93740368985634    5.66233952676916
H        -3.16550398666821    5.89289685728739    4.24575962339694
H        -4.37951955562217    4.62138775077882    4.15915442071724
H         0.12150658157897    2.75037871627078    7.13762969072868
H        -0.94922953074112    1.85477254484362    6.45473851846262
O        -1.86214140230129    3.99575631407652    9.51464990704102
O        -0.40213064092317    4.98709944996298    8.26034114838141
O        -3.65647311024058    2.16937607935777    8.13361655450705
C        -0.87137454403953    4.78263616618910    9.39927742071432
H        -4.40429717362306    2.75348385501233    8.31554667847701
H        -3.32842236803703    1.85299984779316    8.98318358781202
C        -0.29552839330872    5.42398597670163   10.63906560078471
C         0.79217809290635    6.43464448075272   10.29871683831845
H        -1.11644686340089    5.89716977491772   11.18260963439348
H         0.09675955379069    4.62517960192456   11.27367959309060
C         1.34365189945839    7.11061707265254   11.54953398793610
H         0.39010805078873    7.19761568878265    9.63162210992322
H         1.60712497110370    5.93842603251819    9.77130544489357
O         2.33154107685683    8.02914333766896   11.13521949372134
H         0.53659370651989    7.63418467703548   12.08211858911666
H         1.78005115313594    6.36088620433193   12.22573478762638
C         2.95414613168767    8.79828559723236   12.06985280250279
C         2.71628620798067    8.74359568702678   13.43858204327221
C         3.89940931081473    9.70041480023538   11.57775806709727
C         3.41483711518441    9.58195895523753   14.29288790315743
H         1.99399321858406    8.05620085596402   13.85073551094230
C         4.58785029310948   10.52874057105750   12.43815659893429
H         4.07125088316201    9.72871311835673   10.51331705838780
C         4.34867277901009   10.47465860222618   13.80309760141431
H         3.22037944065469    9.53065486760383   15.35436665927161
H         5.31548414448597   11.22228383651727   12.04330210619856
H         4.88681168307325   11.12403173282170   14.47668835825931

