75
CSD_code = KEBMEJ | q = 0 | S = 0 | Stoichiometry = C38H30MoO4P2 | MND = 6
Mo        2.96993935494977    1.70289956500832    1.18583429859267
P         2.84217046637236    2.60773413694401   -1.02870250685851
P         5.19974184948202    0.92788938722697    0.70845870100017
O         0.12490785014539    2.69152394588815    1.85365173236445
O         1.41125152883507   -0.80763827251392    0.28422456298456
O         3.10474173840136    0.45108159553831    4.00408225222924
O         3.92842487749901    4.30217364206166    2.55907312618874
C         1.18262496141282    2.34631805379880    1.59091658478652
C         2.07111912200840    0.09043255130914    0.54474585416219
C         3.06450390566998    0.90999554584216    2.95683753410920
C         3.64788973026460    3.35314076847560    1.98837386752237
C         3.74830471808370    1.66703911512027   -2.32867403218325
C         5.28306865032942    1.69878130140809   -2.05261941439106
C         5.73235958160086    0.71548808962726   -1.00885221110795
C         6.46024205762936   -0.26184842657954   -1.54646683437454
C         6.70276396454426   -0.07117253866415   -3.01323953688019
C         5.89341939065590    1.18572171177596   -3.37844176924249
C         4.63522540080120    0.94324114436395   -4.25465706691305
C         3.74656307361757    2.11004395815052   -3.80488357688980
C         3.90569400526327   -0.21511934154088   -3.62727595656450
C         3.39775514493787    0.20546184179500   -2.47677069150690
C         3.46516198640178    4.27315859901515   -1.42959930234925
C         4.55968189064010    4.76116898181381   -0.72303640266850
C         5.10203647199484    5.99560142211021   -1.03212594140430
C         4.55223524704945    6.75600243938173   -2.05057801539761
C         3.46498742768192    6.27472816574271   -2.76271431080023
C         2.92520420143063    5.03796218444247   -2.46071633432415
C         1.13442640138419    2.69785351354593   -1.62695008062439
C         0.54068223026793    1.73250954850998   -2.43113098842826
C        -0.80863086612070    1.81788050230555   -2.73098237525683
C        -1.57322187460929    2.85510136215051   -2.22593032894812
C        -0.98942999914517    3.81324811345546   -1.41082143952597
C         0.35465987117922    3.73156263589332   -1.10763576597656
C         5.77774788182786   -0.63354649218125    1.44155473456142
C         4.84848687718060   -1.61562594901556    1.76148206085863
C         5.26232229004185   -2.81489968461146    2.31396390347384
C         6.60763734091189   -3.03973627769560    2.55245238048086
C         7.54011015507438   -2.06524502160452    2.23269034959642
C         7.13075516958852   -0.86729095053702    1.67792241943225
C         6.47778080425173    2.05807060766142    1.34835532645436
C         6.43390779892173    2.31036541035138    2.71814855587913
C         7.32536724165149    3.19346079075852    3.29434213894394
C         8.26435073260783    3.84171995098325    2.50580876294665
C         8.31881226700135    3.58800345196812    1.14650971009307
C         7.43350738416269    2.69467187787187    0.56601427277404
H         5.58181212797334    2.72468358310516   -1.81499501024086
H         6.86486966875412   -1.11082619373665   -1.02083841238591
H         7.77072280125116    0.06930174749512   -3.20157266468004
H         6.38711498615084   -0.94690585276738   -3.58260812955263
H         6.52473000209262    1.93908570025527   -3.85283699107536
H         4.84285509021369    0.86157242377754   -5.31936415249432
H         4.20048942221105    3.08747975681494   -3.96525661423278
H         2.75664471131654    2.08654587873083   -4.25886681185004
H         3.87884416422110   -1.20986362719790   -4.03397394313761
H         2.89674034884900   -0.38033157384980   -1.72726278306211
H         4.98913449129954    4.16825559873433    0.07645219310086
H         5.95091068579851    6.36336321493444   -0.47423876858767
H         4.96910700485423    7.72320786512257   -2.28947397525630
H         3.03662567271395    6.86585614409370   -3.55916601068224
H         2.07759947984394    4.66583492414936   -3.01954933344698
H         1.12754102318467    0.91148968184196   -2.81905105258935
H        -1.26512279717590    1.06567834688069   -3.35809973071656
H        -2.62590725138121    2.91416538948734   -2.45973797584558
H        -1.58622398803437    4.61747636503547   -1.00641326872682
H         0.81923141211613    4.46971835331887   -0.46284306149574
H         3.79664384619591   -1.43234230692807    1.58215048549612
H         4.53379913402919   -3.57193480276937    2.56423119163403
H         6.93090402017975   -3.97235064280764    2.99081233207524
H         8.59000129559492   -2.23965459786099    2.41931310801498
H         7.85808167302127   -0.10521074540866    1.43203431816207
H         5.69331443302020    1.80118814340596    3.32559967738915
H         7.28642459170927    3.38328693726663    4.35672721833680
H         8.95472377658851    4.54147200030030    2.95303909863326
H         9.05519334210170    4.08608211023061    0.53199585378247
H         7.49310452743855    2.49006322097033   -0.49374503337720

