114
CSD_code = KEBTOD | q = 0 | S = 0 | Stoichiometry = C48H58N4NbP3 | MND = 4
Nb        8.01044143964813    9.54468554393134    3.48526316369529
P         7.53379548907207   10.55920524368803    6.09791098597537
P         9.61439186471886    7.45458133226974    3.93796832611903
P         6.95436537446554    7.35616714048176    4.92147574872811
N         7.44800005380581   11.16460587820320    4.54219614749545
N         9.90591853303320    9.06355049419469    4.16970255956873
N         6.49045330372401    8.18888151289353    3.55932995397007
N         8.05360990012165   10.18505851684762    1.83322672617370
C         8.66571778028089   11.72890480759138    6.99454662632598
C         9.98263163871834   11.31926555681707    7.17088150979187
C        10.91045975916824   12.14022205240100    7.78601074608458
C        10.52688791640725   13.38967102036547    8.24154739325875
C         9.21255417419879   13.80125433023664    8.09132506786152
C         8.28570083961450   12.97804536958152    7.47802083820313
C         5.97584905366750   11.12065529875844    6.90676712637541
C         5.88908751425087   11.12183801956819    8.29681729542804
C         4.69026126541643   11.40855907728986    8.92031875258603
C         3.56122967317539   11.68230671538646    8.16363339175459
C         3.63437147276974   11.65706547711832    6.78127056166861
C         4.83406436202954   11.36778917253334    6.15690336635669
C         7.38291716758775   12.59727579861633    4.27281088467521
C         6.40557296622600   12.87440309262558    3.12714024179993
C         8.78591114588372   13.10535820353760    3.92015914624771
C        10.89259149397633    6.82189656755906    2.75761367141632
C        10.54374691279347    7.06578110695897    1.43164070962890
C        11.37306565204248    6.67921898380249    0.39702791478688
C        12.56281506195236    6.02634420924440    0.68138121515966
C        12.91138206904888    5.76848411413812    1.99658940137968
C        12.08313772806082    6.16129902098202    3.03463777291009
C        10.03350907609069    6.57875334042401    5.48483865228195
C        10.32042851605312    5.21715014337491    5.49012383311428
C        10.46250906460965    4.54464850002408    6.68913360480988
C        10.28675499718154    5.21317000150428    7.89050026417319
C         9.94591834628859    6.55561602143105    7.89192238470691
C         9.80691978853844    7.22859165253564    6.69294674375886
C        11.16328434551130    9.78886166908971    4.17025980458523
C        11.66454567243831   10.05076569226304    2.74320887080665
C        12.25755105718782    9.11756337177186    4.99996204901178
C         7.20777763209390    5.61829673050546    4.37138324521321
C         7.55716520721043    5.32791029380432    3.05788630720371
C         7.87475574453346    4.03217037679645    2.68945576779349
C         7.85917952156982    3.02127992839126    3.63568348283694
C         7.52849662222307    3.30752717099872    4.95146125042753
C         7.21601113633378    4.60151748107987    5.32061050705203
C         5.35510777175320    7.06031267093550    5.81671729877562
C         4.41358084087072    6.09672753090145    5.46575404477183
C         3.21849173266725    6.00712079825167    6.15613303266043
C         2.94846699462458    6.86859603951793    7.20718948019358
C         3.89201287613931    7.80823093325279    7.58513230992837
C         5.08687205655458    7.89353539136999    6.89523298222683
C         5.21928406243362    8.01946303824274    2.87618197300869
C         5.43646643241346    7.96877496410359    1.36134611480836
C         4.29182230768172    9.18869485839306    3.22119667660162
C         8.05694521746139   10.63712559919074    0.48775698864273
C         8.61626316964025    9.55714688181950   -0.45529058561233
C         8.86709429154657   11.93334282188310    0.30313688431620
H        10.28040787304541   10.33796645265940    6.83016697343636
H        11.92945136458425   11.80321816287417    7.91326548519691
H        11.24595909212604   14.03720355617275    8.72168292577026
H         8.90521396333977   14.77057152441752    8.45745568364547
H         7.25976478923256   13.30873304878580    7.39227308858905
H         6.77060578562658   10.90141518381616    8.88585095307601
H         4.63272596250453   11.41549914775825    9.99982787898521
H         2.62421966612824   11.90635956814893    8.65266801171629
H         2.75277493147111   11.85698479538891    6.18854836927779
H         4.89810871611108   11.32403492815264    5.07841860193417
H         7.02889623485190   13.13127246057796    5.16704686955011
H         6.51634782401508   13.89813725891316    2.77694798925870
H         6.61277388279264   12.17994186904351    2.31246258548117
H         5.37709897430173   12.73752593416082    3.45414770815583
H         8.75303064033942   14.14527643255073    3.60248985170468
H         9.44074635221393   13.03101750892164    4.78737200085909
H         9.19010543908906   12.48427247757137    3.11779999128945
H         9.60347641831897    7.57916282698320    1.24356880808924
H        11.09457298403071    6.87761380016723   -0.62826128115157
H        13.21652691306346    5.71562348015155   -0.12056020224439
H        13.83770809933207    5.25724812676180    2.21831051321452
H        12.37128160834644    5.94781281755326    4.05526007036549
H        10.41707122117869    4.68589288933938    4.55284914382430
H        10.69843090227309    3.48979134751900    6.68743053728761
H        10.39624937883041    4.68206103856448    8.82519207215969
H         9.77653222280704    7.07205319496493    8.82661908328972
H         9.51387020878985    8.27314969578683    6.68359998269405
H        10.93784177008176   10.77383240940567    4.62073569363708
H        12.41817647219480   10.83584691764460    2.74574341559539
H        10.81664543462370   10.36032056203889    2.12719925099119
H        12.10036035279139    9.14851184560598    2.31940541288010
H        13.14542378925793    9.74677294674273    5.01531620959631
H        11.93152417046171    8.95052559420286    6.02454633511268
H        12.51759643750412    8.15712455679134    4.56202991868794
H         7.56611957938242    6.12837932916728    2.32435333414164
H         8.14516302434106    3.81303077365779    1.66568391179011
H         8.11105936845753    2.00971466297536    3.35064144390706
H         7.52447999001008    2.51988184228736    5.69171878582180
H         6.97213875062165    4.83562414953161    6.34932946100527
H         4.61907173364893    5.39919479706964    4.66420075699854
H         2.49237358236488    5.25820908149718    5.87196978180573
H         2.00983033136271    6.79738731568389    7.73758434348557
H         3.70039587965883    8.47373520729797    8.41492890668389
H         5.83543164704443    8.61177683306066    7.20151745585621
H         4.73890623479152    7.08288920008043    3.19332275253112
H         4.47801118507196    7.93543250268793    0.84791563497962
H         5.98377744414218    8.86176885183665    1.05615611851198
H         6.00719262175850    7.08590302371802    1.08117675994630
H         3.34671345302890    9.10367412996018    2.68864147572817
H         4.78812878999967   10.12092327875613    2.93474525806713
H         4.08898854813386    9.19683164241296    4.29195934310305
H         7.01398970244040   10.84887965751692    0.18010832170801
H         8.50358187037321    9.86795561624286   -1.49109631612985
H         9.67182757657726    9.40295345074311   -0.24428911760619
H         8.07993665503435    8.62266899656748   -0.30648238547223
H         8.85507502725756   12.22799276459912   -0.74342600338544
H         9.89792260357284   11.77320312037917    0.61037170784315
H         8.44231843774729   12.73594785276784    0.89807712323674

