27
CSD_code = KEBXEV | q = 0 | S = 0 | Stoichiometry = C9H13Cl2NPtSe | MND = 4
Pt        5.12797248309669    1.08098445234561    4.06106272974301
Se        6.63294662204922    1.25422979563065    5.93386898035696
Cl        3.67319982793900    1.20838856743666    2.33324607847155
Cl        6.59115866741571   -0.17583450909652    2.91716548282467
C         5.51108346656213    2.59757946389493    6.87677864181829
H         4.96283865046769    2.03491653511295    7.63631259211979
H         6.17770909044366    3.30440248863533    7.37388624415745
C         9.07860891974147    5.37119569326886    7.17782125560088
H         8.85699306028005    6.41912540987494    7.31541205710678
C         4.54667639530390    3.31331046917344    5.93595616599115
H         3.88088438971453    3.95688105614491    6.52895920161242
H         5.10647083593350    3.95208619601846    5.24652523120392
C         7.90341514403977    2.48982666450828    5.03856621999520
H         8.54823813189471    1.81620439936420    4.46991009326056
H         7.33408381068113    3.10860317578933    4.34079186391992
C         8.37878481216587    4.63895452408322    6.23386030613702
H         7.62214512783932    5.12328160822134    5.63197125704820
C         8.65842558049250    3.29129187465895    6.03881086815852
C        10.33885971430633    3.41725910348909    7.75934782916315
H        11.10298347092246    2.93898051714886    8.35333516859589
C        10.05873140877869    4.76248757906314    7.94187785017008
H        10.60396699867608    5.33413561634521    8.67748298029636
N         3.79102613298865    2.34563103288155    5.14142250870882
H         3.22466944228998    2.78800172700176    4.41458567573938
H         3.16953083796944    1.78884554516001    5.72758087619369
C         9.64155510057199    2.68658662521510    6.81674726049141
H         9.85194187717779    1.63594438852475    6.67231458078352

