87
CSD_code = KEBXEW | q = 0 | S = 0 | Stoichiometry = C30H52N2NiSi2 | MND = 2
C         4.90244617911604   -0.26459270191008    2.65867682559403
C         5.61386965012841    0.91084795776805    3.02218306450270
C         6.72331792045146    0.80701692849827    3.83969573392108
H         7.28323737576265    1.68943587378055    4.10733190720720
C         7.13580147053105   -0.41984441896481    4.33222986882853
H         8.00392663113694   -0.48023809153650    4.97215839305715
C         6.43535932869925   -1.56528977552175    4.00178522329231
H         6.76399204782321   -2.51649048850031    4.39432184436178
C         5.33079180545133   -1.51288041128050    3.17119325671997
C         4.58677541071077   -2.77458302820447    2.81074095528618
H         3.74223136806050   -2.49070811215125    2.17863850664698
C         5.48376254489590   -3.72420058207232    2.01297238710679
H         6.34735123184490   -4.03039098126050    2.59875826635287
H         5.83873605447075   -3.23425495109962    1.10916317597872
H         4.92824903421243   -4.61669069227631    1.73100968032627
C         4.03807964059399   -3.46521620939575    4.05996727688807
H         4.84411708403759   -3.82536574246331    4.69495124186807
H         3.41994766270810   -4.31518738360274    3.77807610324444
H         3.43128577787055   -2.77161506297427    4.63790850499127
C         5.15333125645567    2.23448149451583    2.45992639365500
H         4.05914616273610    2.22157244151378    2.46391972488693
C         5.61852071151741    3.44540339240761    3.26692623223906
H         5.38655294111322    3.31628998179400    4.32125134401737
H         5.10879730098232    4.33870197291100    2.91151466236020
H         6.68869082828157    3.60657917464551    3.15867244479299
C         5.61259676759315    2.37667376206573    1.00399887606081
H         6.69549633581602    2.28833428242072    0.93469384212088
H         5.30896036462503    3.33954177682680    0.59808663886044
H         5.14900345710350    1.57894718344642    0.36935648614459
C         1.13595489598326   -1.50898277504876    2.30617926594580
H         1.32132165301421   -2.27335684421249    1.55783284276784
H         0.07555720398544   -1.27616247212538    2.27951994942035
H         1.34856842240734   -1.94235487919063    3.27815372044833
C         1.70535279457176    0.80916355308379    0.29482209464967
H         1.38482984630042    1.84307506898371    0.36407460098166
H         0.91053791612089    0.25074325270293   -0.18645972952751
H         2.58112466853139    0.78279079772148   -0.38218059157493
C         1.73230656193918    1.25982857600754    3.45016174901355
H         2.39175314501371    1.08791591655790    4.29542807566011
H         0.71575400776194    1.08912819315833    3.78863836191675
H         1.81414449428301    2.30733805683054    3.17714282567349
N         3.84399197391838   -0.19561386642040    1.78696044191827
Si        2.17309976882356    0.07780238085184    2.01222811159476
Ni        4.46251340348421    0.00032692448056   -0.00015191314255
C         4.02249518966971    0.26486501682896   -2.65885649120871
C         3.31128736919752   -0.91078682619928   -3.02209667184502
C         2.20151981333795   -0.80735549047521   -3.83922369419978
H         1.64176901123247   -1.68997521195651   -4.10655977880467
C         1.78847150549746    0.41935369997849   -4.33164745468800
H         0.92005017760080    0.47947659625729   -4.97119995387063
C         2.48873754045369    1.56500695437326   -4.00154738411512
H         2.15965065269569    2.51608799203088   -4.39399289709521
C         3.59367657287759    1.51297859816523   -3.17142094867680
C         4.33749688884055    2.77494672255185   -2.81146199284017
H         5.18290014419416    2.49130816359054   -2.18039978891475
C         3.44089579530166    3.72383678799794   -2.01238088293902
H         2.57632926261005    4.02948493301564   -2.59701815965318
H         3.08743759780289    3.23352089794516   -1.10817951312708
H         3.99616063866964    4.61667104886783   -1.73101497884603
C         4.88437513030408    3.46633077300229   -4.06107155509602
H         4.07742103276927    3.82589257151443   -4.69522047335785
H         5.50198307085307    4.31681534854913   -3.77958332561901
H         5.49126752419882    2.77343387010798   -4.63975258416189
C         3.77213739766548   -2.23420313524178   -2.45963176966487
H         4.86629842559341   -2.22086575309909   -2.46307478190189
C         3.30789406814096   -3.44534944849637   -3.26682835150089
H         3.54029200280693   -3.31607837326624   -4.32104191519583
H         3.81792137336882   -4.33839031704774   -2.91120222986021
H         2.23776012996594   -3.60709423315626   -3.15909305229595
C         3.31220889650926   -2.37630651360348   -1.00391550500139
H         2.22925235508349   -2.28820534901395   -0.93516574917965
H         3.61589580754234   -3.33901115083421   -0.59765175110518
H         3.77527441549977   -1.57828856744966   -0.36927512820032
C         7.78847512162082    1.50861441446707   -2.30917539044337
H         7.60359168459686    2.27388936746276   -1.56163109124769
H         8.84894611697986    1.27608363731705   -2.28321759145020
H         7.57483092122123    1.94067972724846   -3.28150990011500
C         7.21981334101709   -0.80717154448328   -0.29409906786103
H         7.54067214596559   -1.84104788907557   -0.36227158847494
H         8.01447675878023   -0.24799474230620    0.18654002550708
H         6.34408289641360   -0.78042887393550    0.38292414507667
C         7.19368308828411   -1.26259606003827   -3.44790907726733
H         6.53600672055654   -1.09114323637793   -4.29464759490143
H         8.21106856389313   -1.09363252022449   -3.78478137473401
H         7.11012471408233   -2.30962340062880   -3.17351905078023
N         5.08110059104834    0.19632593234053   -1.78727720164217
Si        6.75188244438631   -0.07797388946219   -2.01237514575732

