37
CSD_code = KECBAV | q = 0 | S = 0 | Stoichiometry = C16H12F6MoS2 | MND = 12
Mo        5.60426558626330    1.82613362484039   10.92083026561508
S         3.63683798174171   -0.10639442122143   12.96833951897784
S         2.23075247765782    1.91602038289843   11.30114561542945
F         8.05461225538140   -0.85784187051454   12.96728576683130
F         7.72418081468937   -1.49357887477444   10.92999714859045
F         8.34298513727859    0.51172507416164   11.35762413845614
F         6.31618997753927   -2.83157049144630   12.75091363335652
F         4.37278029738024   -2.65750928541951   13.62627863287474
F         6.05570725985987   -1.74848523653350   14.59806794577420
C         6.06474353740257    0.33242883833687    9.10102286797284
C         6.84691108785963    1.49149298479506    8.96488807365277
C         5.95458896928544    2.60245786916984    8.87236257502065
C         4.62074215822139    2.10785248344221    8.93864403247458
C         4.69838693265615    0.70756437402711    9.11328564100380
C         5.86138566261908    2.24660427974049   13.18534817202456
C         6.78663156909494    3.10223486456725   12.56750301763152
C         6.07389540828548    3.96007861226995   11.68480231669282
C         4.70156075136263    3.66230109516014   11.77207119145028
C         4.54301718310003    2.55059455492062   12.67868192369813
C         3.74856109363961    1.48157972990036   12.13040328736582
C         1.08593567090165    1.94277905720193   12.71317182437220
C         5.25081823386472   -0.70287709635153   12.63302326117761
C         5.50850892899037   -1.98118103849555   13.39050735293879
C         6.11379400712942   -0.00848377807479   11.87711453380919
C         7.52742517446512   -0.47729992233384   11.79100676322214
H         6.42929386064266   -0.68656045399484    9.07298851858234
H         7.91463139912649    1.51875181935445    8.80052174334245
H         6.23997988754574    3.59653446142503    8.54978623894046
H         3.71790592586885    2.66064394493055    8.73669448720053
H         3.86010037345566    0.02526056681075    9.09053940691486
H         6.07447374675143    1.58194138450025   14.01695888255638
H         7.83566164440323    3.17643864994740   12.80560407654345
H         6.50532529649323    4.81262103680937   11.17905232282378
H         3.88583312943201    4.21952445762075   11.33713503214420
H         1.43445423576365    2.67443792792199   13.43637618980400
H         1.04404913215798    0.95045821926832   13.15238073658876
H         0.11527321168942    2.22712217513928   12.32224286414571

