79
CSD_code = KECBOJ | q = 0 | S = 0 | Stoichiometry = C34H41NiO2P | MND = 7
Ni        4.74253501991196    2.17686799641992    3.96185132527541
P         5.56575955529385    2.66081338877716    5.89824962698097
O         3.73482208923579   -1.20466622617722    2.71699782358213
O         5.55149377987206   -1.34772612926374    4.05256598822426
C         4.01845540994497    0.36008249066325    4.50553941049080
C         4.39553364308628   -0.77506687421583    3.64497662896523
C         6.00625475811286   -2.59614866433306    3.49237730059735
C         4.97782706188110   -3.69569137502486    3.76650985024522
C         7.30804251590468   -2.89355931707443    4.24001105372587
C         6.28300086758357   -2.47459028585900    1.99364145817873
C         6.98220666924621    1.76110533397037    6.60973333626304
C         7.40639385126319    0.58685397263091    6.00001477963726
C         8.48345439986228   -0.11181080095124    6.51871395840905
C         9.14095329427546    0.35575051120615    7.64369451873811
C         8.72588933286886    1.53106483982008    8.24986112128488
C         7.65444732959223    2.23585587327264    7.73451567851773
C         4.25079727818252    2.46953812671747    7.15601382460813
C         4.45509772201855    2.09364549290587    8.47619067790531
C         3.37848939837897    2.01294061855543    9.34390749505409
C         2.09908780359337    2.30767099460524    8.90433104320134
C         1.88766530935594    2.66974809531065    7.58300332416816
C         2.95837221921180    2.74239188128070    6.71360649267894
C         6.11164767904640    4.37340947078145    6.23022474151347
C         7.39571351203456    4.74081045239167    5.83336183114149
C         7.84209544776290    6.03534784970439    6.01754806076834
C         7.00590575871317    6.98148557023213    6.58985541215468
C         5.72377605639704    6.62644709293330    6.97298275273907
C         5.27399122819753    5.32990190532555    6.79043597518175
C         4.83800573991565    4.08332827766375    2.96071261567539
C         5.80593824852837    3.19484209438773    2.31957330253272
C         5.11056034082744    2.09496337216389    1.83364873827480
C         3.69391873954464    2.27340227360616    2.17572660524650
C         3.53999311259520    3.54849554842099    2.78178014222119
C         5.12348051740843    5.50752534072041    3.31868126498668
C         7.23405910141769    3.55384494568767    2.04379835262865
C         5.60525337493211    1.04202523181085    0.89541777495009
C         2.60203938989545    1.45778327654743    1.56798158156350
C         2.24859279436168    4.27123087124045    3.02916810118673
H         2.92847733711693    0.48991046783260    4.45816786950544
H         4.32941378372157    0.13917235296738    5.53368259904656
H         5.35697916889472   -4.65184595865437    3.41606129707839
H         4.77948961552128   -3.76122314360578    4.83443320669245
H         4.04790455838131   -3.47367718801108    3.25045326198401
H         7.69765419903092   -3.86228511054917    3.94008258014390
H         8.04669457034566   -2.12904743682420    4.01329116483298
H         7.12503941412858   -2.89818290808583    5.31151786608525
H         6.74558138517885   -3.39000849270526    1.63356057787326
H         5.35620519368346   -2.31068168681094    1.45204776911362
H         6.95581788085567   -1.64094954034946    1.80598610878536
H         6.88259211569235    0.23049614423440    5.12216235449583
H         8.81509723298249   -1.02280195799060    6.04418966046313
H         9.98132129385342   -0.19041853678740    8.04674821563374
H         9.24170166212594    1.90114486474748    9.12430136514521
H         7.34750553780153    3.16403309748030    8.19724646008566
H         5.44658567144123    1.84952400534977    8.82743418507731
H         3.54066528168536    1.71567239758409   10.36985615867215
H         1.26535719439567    2.24451768111756    9.58800673192084
H         0.88865908419687    2.88663560871764    7.23390409427452
H         2.81356575368885    2.99534088008276    5.66654672775432
H         8.04339059894077    3.99687263127429    5.38752659579994
H         8.84176629420792    6.31029673058128    5.71289047139096
H         7.35364262680177    7.99366199348623    6.73411588882820
H         5.06923072684177    7.36327812879714    7.41582939396374
H         4.27152381684349    5.05761390243114    7.08971229349530
H         4.94896387786723    6.13096428488170    2.43848107925452
H         4.47184408371386    5.86165060203503    4.11575974934435
H         6.15473932242648    5.64779190915345    3.63247505925382
H         7.29225765175581    4.16753662597198    1.14153917948170
H         7.66777340596563    4.12164865570086    2.86488635066246
H         7.83663509875253    2.66151035039309    1.88605147557167
H         5.44455404199014    1.36876005922282   -0.13484410227588
H         6.66937489627247    0.85777658220232    1.03040481270856
H         5.06211457967892    0.11240102136442    1.04061485650927
H         2.58136635795511    1.64053567095238    0.49175398202855
H         2.77411421618667    0.39405516358441    1.72402567563205
H         1.63243233427097    1.72197649382767    1.98300880616651
H         1.95596189763190    4.82051445782318    2.13124786281352
H         1.44644856961699    3.57800029888473    3.27544590182321
H         2.34710731540461    4.98781538075078    3.84299044100126

