75
CSD_code = KECFIK | q = 1 | S = 0 | Stoichiometry = C40H31CoN3(1+) | MND = 7
Co        1.93443317468280   14.08852868142701    4.21594084110604
N         1.57781982281445   15.87255714739800    3.30928954341015
N         3.57525558906842   14.90309798770028    5.33399248218808
N         2.37540216879107   12.56898993215378    5.17731299102014
C         0.26569249398282   16.54193687166861    3.51644321865144
H         0.25167645177902   17.47074863251036    2.92670504279424
C        -0.88496703691011   15.68881358344356    3.06884414831736
C        -1.00968777078722   14.38715272289347    3.56240125257139
C        -0.12510837057699   13.83775331653755    4.57595407076551
H        -0.33055318423543   12.78847509963721    4.77233453549789
C         0.47486620038986   14.53151306846898    5.64005130947498
H         0.66733505175232   13.93662758010225    6.53331020241851
C         0.29541221242871   15.94194222468006    5.95153666722226
C         0.11066584447876   16.91569123241433    4.96498853298886
C        -2.04013832574768   13.58259112384770    3.06549867340410
H        -2.13748678351376   12.56884895163012    3.42620883068660
C        -2.94638255190447   14.07156547294563    2.14940208490126
C        -2.84041119799583   15.37921637488484    1.70123132884161
C        -1.81028956666301   16.17791083836752    2.15954141875876
C         0.26171000322292   16.33600043657530    7.29267335115391
H         0.41924460858858   15.59445679240273    8.06278198883103
C         0.00178043230996   17.64439395163665    7.64326442478453
C        -0.22370015119670   18.59401805376966    6.65839977612817
C        -0.15831032511885   18.22753902307518    5.32668449169944
H        -0.31403152171850   18.97094984848451    4.55817416656888
C         2.00190577675163   16.05190239482635    1.89664192282198
H         1.81298626883181   17.09802606255033    1.60969822187891
C         3.47491169334400   15.79699109894313    1.73366537290801
C         4.03284209070414   14.58455712203172    2.15305255573693
C         3.23307360808817   13.48021118435741    2.65905212838575
C         1.93764919166269   13.14080842783688    2.26432672123643
C         1.14246142703935   13.79458402022736    1.23859003779704
C         1.20837986210106   15.16642475435018    0.97965020919413
C         5.41921642188651   14.42164688775055    2.06505534865803
H         5.86069904565554   13.49433775682830    2.40056507369772
C         6.22145067552254   15.40962759708917    1.53427662105595
C         5.65550389371595   16.59334906909366    1.08548314175198
C         4.29038820236416   16.78272196721704    1.19451352846915
C         0.29822254273713   13.00869710792401    0.44771884591410
H         0.21916057834050   11.95074607161778    0.65097126318579
C        -0.40719163942586   13.55647474362434   -0.60212185718984
C        -0.28941511208011   14.90841074037675   -0.88542974907171
H        -0.83228790363490   15.34061654137887   -1.71114720051344
C         0.51072876342688   15.70618118724721   -0.08993967976462
H         0.58437475899367   16.76450733282577   -0.29495055377267
C         4.17747031548314   16.08593648658479    5.33137938419774
C         5.07124478664288   16.49238979975633    6.30530149339903
C         5.34824917069173   15.62418602631965    7.35050519256604
H         6.01801934800201   15.91090266467490    8.14584997060684
C         4.76059542633923   14.37396577566501    7.34237565135475
C         3.89069396626437   14.03145974022726    6.30593816157677
C         3.28479716900557   12.70801609742483    6.16771781369305
C         3.65376834667724   11.63208574328290    6.97477924237115
C         3.08568193515220   10.38914879021010    6.77732330413358
H         3.36221618357652    9.55060964780801    7.39566595078266
C         2.15591381197488   10.25325567768402    5.75674198121552
H         1.68334379925155    9.30654839948437    5.55251935450537
C         1.83886863249134   11.35937384577655    4.99405931675563
H         2.22842713084495   16.44377164330322    3.85134720928349
H        -3.73956991510208   13.43764239013244    1.78457096838935
H        -3.54914114449505   15.76882827252784    0.98768476878321
H        -1.71615510083661   17.19086523949311    1.79599367745293
H        -0.03183396116141   17.92646321714532    8.68420155069973
H        -0.43463395449464   19.61700923933818    6.92724712271410
H         3.84312392475046   12.65852427464834    3.03218350736382
H         1.67590022062446   12.09319772791216    2.37946926107690
H         7.28757393137773   15.25910578118254    1.46432350602752
H         6.27626330028852   17.36855208432314    0.66465039174241
H         3.85218758357916   17.71212502393600    0.85945330789259
H        -1.04643899185360   12.93135116357113   -1.20591315897119
H         3.96984063719634   16.74873429943285    4.50143536657458
H         5.53125947760483   17.46497485720303    6.24743855455240
H         4.97220624857398   13.68061110746939    8.13867349344650
H         4.39070283541598   11.76400959201076    7.74857182048589
H         1.11603747218632   11.25881437473098    4.19867450876190

