41
CSD_code = KECGAB | q = 0 | S = 0 | Stoichiometry = C16H18NiO6 | MND = 6
Ni        3.04947985469383    0.00008959122281    8.87859188538730
O         4.38277894554096   -0.02500919578103    7.56292341849566
O         2.33218836920880   -1.43183889472207    7.90193326374339
O         4.63459558686951   -1.34172031054730   10.21985407259948
C         4.20182384843939   -0.90953516854170    6.65859384229004
C         5.12955112090530   -1.01331688464255    5.60652556678531
C         5.15360973050320   -1.88661157414829    4.54068235086941
C         4.27276225910992   -2.90904724150449    4.21456685507841
C         3.12853803489069   -3.30534642846535    4.89329003941637
C         2.57219607789011   -2.79822290378622    6.04788125701905
C         3.00874782881767   -1.73788745884877    6.86162962431782
C         5.01431538531751   -2.64276131572936    9.82216377587659
H         5.92882874121474   -0.28449343627425    5.66656785277880
H         5.98458268562258   -1.75653645183812    3.85689524526891
H         4.50751013204539   -3.46699354935089    3.31722045874597
H         2.59221760054897   -4.13618848721898    4.44947679173534
H         1.66362402137863   -3.26705085739574    6.40586216919070
H         4.13024391648343   -3.27041624988086    9.91980822194553
H         5.35677763074512   -2.67161695582680    8.78248176604539
H         5.80665478323859   -3.02954742488186   10.47280469747817
H         5.38462742160191   -0.74315002304755   10.09820098949195
O         1.71614928075427    0.02521111885150   10.19423789252486
O         3.76683683151539    1.43196370144176    9.85538223267671
O         1.46399397801068    1.34146617595884    7.53724132482474
C         1.89710426018696    0.90970506094299   11.09859905640361
C         0.96933158792178    1.01347291017422   12.15063251831667
C         0.94525921762633    1.88669241610330   13.21653381447460
C         1.82611960477929    2.90909280646750   13.54272868182241
C         2.97034295457263    3.30543070887920   12.86402857311201
C         3.52670935564026    2.79836421439345   11.70942042640779
C         3.09021361121742    1.73802942473884   10.89563978342762
C         1.08436456378584    2.64250245998150    7.93499168629878
H         0.17003736064848    0.28467549662432   12.09050728478701
H         0.11427532505759    1.75658042506108   13.90030017802505
H         1.59137472005928    3.46697533375749   14.44011561798568
H         3.50665248811894    4.13625711959104   13.30788547320191
H         4.43527928589033    3.26722987317406   11.35148263418047
H         1.96831662034566    3.27016736332756    7.83702617387348
H         0.74236275993149    2.67134135238146    8.97480827927720
H         0.29166053530944    3.02922987863514    7.28467309204953
H         0.71416168356109    0.74281338072453    7.65961113177051

