68
CSD_code = KECJUA | q = 0 | S = 0 | Stoichiometry = C38H9F15N4NiO | MND = 4
Ni       13.15210753823539    4.42544882982333    8.25697843535808
F        10.97371106907173    1.77876134188278   12.30843360430544
F        17.42441628479484    4.98270570521479   11.84770631492166
F        14.30055658624870    8.48942823860535   11.47172148907134
F        15.68939671724274    9.92848333348073   13.30337971673356
F        18.82946788063285    6.42306973894724   13.66030817093594
F         8.26279802944583    5.34415434096769   10.85178993492497
F        16.33521779168891    5.48977371215911    3.77636256992065
F        17.96653539683244    8.90224054921759   14.39897376822783
O        10.13478594022894    3.59478715676606    4.70790929089130
H        10.57585541686148    3.57389029357987    3.84871011637539
F        18.51729435604780    5.02514322126391    2.24203434792918
F         9.11694724346262    1.12262953268390   14.17419611272243
F        17.82227554109972    2.27091048671022    6.87894421660581
N        13.38349893450610    3.99169660882284    6.36085016132621
N        11.26592417572466    3.95354927428666    8.13775424454043
N        12.92926798429228    4.81744393791395   10.14788409710334
N        15.02904552498885    4.92885076238326    8.37531369420783
F        20.37395690441097    3.18848667696520    3.02860462679332
F         6.81446114666468    2.57104456259844   14.37080966824267
F         6.39393800351526    4.68445366708695   12.69965924661289
F        20.02282986134267    1.81745195920166    5.35980492845812
C        11.03442159307028    3.73750874040121    5.69838890720096
C        15.63522518634564    5.62983546984956    9.37720838204691
C        10.53446017163458    3.77252812807518    6.99960962656815
C        14.56147355247426    3.80400864471540    5.69985635518108
C        12.40582791798094    3.73386760396339    5.44074611976419
C        15.06156304759563    5.93824918508191   10.60475527689617
C        15.41036595919559    7.97285888764842   12.00421636693070
C        13.80002180000715    5.47406375488912   10.96404261691510
C        16.00056139119697    4.71987715989559    7.43739035781035
C        10.68229257729066    3.90799700047817   10.51463474493526
C         9.09414401633694    3.39764526462898    8.65686799259039
H         8.23591930763027    3.15793791107372    9.25219142545796
C        10.38818345954489    3.74436551450620    9.16150489783046
C        15.83671904175634    6.70840562450489   11.60133595248271
C        14.32436118571438    3.35898973103857    4.36272397522857
H        15.07663002875551    3.09537278623242    3.64641220561401
C        15.82584687109891    4.11409585738340    6.20288620582496
C        12.98061862640455    3.35303425941488    4.18817075201910
H        12.45230943327666    3.07145330895430    3.29626834112764
C        11.87929007931737    4.45780851914645   10.94680249137436
C         9.17616256617015    3.45532110682242    7.30694778213618
H         8.41711372843649    3.27389924158794    6.57336503653351
C        17.72086152254035    6.93181841116374   13.12115742071412
C        13.29187649629132    5.53172790754327   12.30543540887214
H        13.78989252899093    5.98942319092161   13.13741210603767
C        16.99817610021693    6.20283297825616   12.18198746842225
C        16.11785773850510    8.71865170454091   12.94112127109105
C        17.22427031814436    4.57233803027092    4.16811209531311
C        12.11138062928901    4.87645967567726   12.30041751183687
H        11.44354945238361    4.71190269304368   13.12295360946307
C        17.01737724468403    3.87947101620835    5.35908390298528
C         9.65647001040085    3.56658324117489   11.52508771113795
C         9.85302353138821    2.49801338861513   12.39742011548189
C        17.28065261508700    8.19664209047876   13.50141179792056
C        16.99825112020060    5.92448725536971    9.03416311662273
H        17.67972390592260    6.50055172690624    9.62781545831877
C        17.23601965336630    5.32607899482755    7.84809818316145
H        18.14650414414515    5.32063402130324    7.28174556389496
C        18.34703405660306    4.34742648802835    3.37841628367705
C        17.98613032203598    2.95444684023704    5.74531447335624
C         8.47622777425546    4.29583283072665   11.65027036163466
C         8.90520961799202    2.15379716317305   13.35571550390591
C        19.29695365399505    3.41207371944822    3.77949460570107
C        19.11600765918886    2.71357477884213    4.97030540063622
C         7.51530059208132    3.96927074193489   12.60198919285484
C         7.72914944372809    2.89193348045265   13.45751686828553

