111
CSD_code = KECPAK | q = 0 | S = 0 | Stoichiometry = C42H62N4NiO2 | MND = 4
Ni        4.99721794210336    9.96607938134022   12.07733370849942
O         4.34549263172814    8.37758284362014   12.85768784619676
O         6.59522798286530    9.07028677451457   11.63459970102362
N         2.28912803946290    9.99825807190017   11.48663960497625
N         2.60885342935895   11.52144357875539   12.97075341470569
N         6.95416043190073   11.90651964884488   12.39140484332892
N         5.83162850048459   12.44702987099230   10.63861600871811
C         3.36012542924390    7.54307678553175   12.73254349935788
C         3.17623949298974    6.48910561888760   13.67580157311211
C         2.12454813144169    5.61691463845033   13.49750901958138
H         1.99251995740902    4.82158689159102   14.21166984600872
C         1.20745984219074    5.69972994490504   12.44711516088257
C         1.37704510871451    6.73250788625263   11.54628823491297
H         0.70104059307759    6.86664237605127   10.71481764045931
C         2.42671358804478    7.62663652278205   11.67470929901554
C         2.55614914987149    8.78848483234174   10.72868119426523
H         3.59274802431597    8.86365748196577   10.35255215708343
H         1.85876299698983    8.71573147913365    9.89201599720591
C         3.24669780492022   10.61754897128705   12.19864131779339
C         1.06030129619058   10.49287821327616   11.81237433409731
H         0.15735667413508   10.12552003791228   11.37015246511728
C         1.25910101420205   11.45715218058309   12.74282776096504
H         0.55409540593244   12.08575576247434   13.24525115854985
C         3.25593410430825   12.34576792820528   13.97085210727332
H         4.33191730426262   12.15887755707707   13.85448829246573
C         2.96975420187247   13.82484504955403   13.72641197927966
H         3.26995815947502   14.10806010425474   12.71996259575553
H         3.52897468321528   14.42922935922759   14.43500679050735
H         1.91191855575286   14.04393910920881   13.84961537794267
C         2.82485298450162   11.90125464020330   15.36702333691191
H         1.76121240818486   12.07157732978507   15.51729195992550
H         3.37484350543857   12.45705311390820   16.12122214976812
H         3.03044280450963   10.84136900254398   15.49695295088770
C         4.13636109611376    6.36947147978365   14.85319830609074
C         3.80697761373290    5.19433293875801   15.77962741950887
H         2.81513640634308    5.29832025083350   16.21566282370739
H         4.52942432956986    5.16805189198127   16.59385545158517
H         3.86798710789696    4.24686173922526   15.24874196109236
C         4.06762058359058    7.65898350005407   15.68486844790411
H         4.36933599938824    8.50758331333033   15.07729818770267
H         4.73459011712715    7.59188532358645   16.54267394469120
H         3.05215449330210    7.82371860628065   16.04407339876747
C         5.56255828847687    6.17131250871266   14.32363940642056
H         5.61497634654011    5.26923815426835   13.71729119063064
H         6.26443262165469    6.07778270995101   15.15068877541542
H         5.85818261689358    7.01696098542453   13.71121842363976
C         0.08232563015242    4.68049688441897   12.35222007759216
C         0.68182290412742    3.27312358645722   12.22589889261594
H         1.28987062921989    3.02555188846780   13.09132317406732
H         1.31164635435551    3.21350122289615   11.34076910271546
H        -0.10930417480147    2.53008049322760   12.14020391296197
C        -0.82436800096279    4.91866459811871   11.14103263530552
H        -1.60495385228827    4.16024105137705   11.11444597732883
H        -0.25971721696298    4.85364853252832   10.21379296230413
H        -1.30491941952061    5.89305883392415   11.19821015222917
C        -0.78453691659385    4.76110675363030   13.61705849505077
H        -0.20240061396626    4.54051317401616   14.50733550191686
H        -1.60508684507065    4.04789571564664   13.56033796338411
H        -1.20141658992738    5.76092822462417   13.72321650733749
C         7.87109331983466    9.14581422525014   11.85649685970004
C         8.77929815758979    8.28282435472146   11.17469816077456
C        10.12507684794587    8.38606039411421   11.45171593418565
H        10.80535243633626    7.72838150310489   10.93717354213853
C        10.67061676891294    9.29785906750200   12.35853449357381
C         9.79050224025311   10.14459403377072   13.00303256675706
H        10.13999706830709   10.88196271678271   13.71049121951022
C         8.42743986085717   10.06940573324609   12.77003246430182
C         7.48814223464516   11.04182501091723   13.42878770050247
H         6.63170593658335   10.50455761611986   13.87536412092194
H         7.98930785998611   11.64431201504101   14.18872842339538
C         5.88857855545891   11.55624767110841   11.65041396648873
C         7.57195485015163   12.99555979048838   11.85021050434952
H         8.45207213496246   13.42905995065948   12.27837424270844
C         6.86346365508194   13.34197166609556   10.74875482627886
H         7.01641117690849   14.14134362279662   10.05432676299742
C         4.88621120805728   12.38284140019476    9.54288330150774
H         4.18758941639359   11.57676359131427    9.80393147500840
C         5.61305355552350   12.00855788755958    8.25275550927283
H         6.31915970250280   12.78461248117553    7.96630137527734
H         4.89696750949725   11.87653519145282    7.44654321527961
H         6.15615954245188   11.07682088163228    8.39200678543055
C         4.11766449593716   13.69443489981753    9.40771450540936
H         3.63127354633624   13.94804969271703   10.34705638200639
H         3.35435593322841   13.59532179020555    8.64114513774575
H         4.78046663184928   14.50927646893723    9.12693566424235
C         8.23636459625907    7.28813357128952   10.15570694563879
C         9.33138600955375    6.43565127919419    9.50619661493875
H         9.85988502300134    5.84276485005439   10.24947137725468
H        10.04611334232268    7.05253456830006    8.96462398262573
H         8.87478662600093    5.74940501975903    8.79472332091542
C         7.51742119178538    8.06176506137332    9.04040362661060
H         7.13092450413290    7.37338336408155    8.29077631250744
H         8.20524433980436    8.75475864817330    8.55671148967232
H         6.68552939062823    8.62297186909890    9.45666077723393
C         7.24731216131143    6.34209702227086   10.84886237006340
H         7.74520285983904    5.80236051328966   11.65192422074181
H         6.85045413107701    5.62068962144861   10.13650228102569
H         6.42050044957402    6.90400390822454   11.27091095002777
C        12.17454404213608    9.32045570117023   12.58563297608985
C        12.88839266653397    9.61010306165128   11.25739892119561
H        12.56574525983044   10.57046470918799   10.85966563100560
H        12.66941366592168    8.84585425873981   10.51717940855575
H        13.96641565505719    9.64142747084526   11.40614722931576
C        12.62336997259493    7.95577093686851   13.12615354550617
H        12.38727960803636    7.15946409669784   12.42602594213042
H        12.11801777723484    7.74171572354676   14.06556196994663
H        13.69796155754967    7.95109950564208   13.30073705661369
C        12.59988215247975   10.39265062191116   13.59332324663198
H        13.68108667961281   10.36769744488957   13.71834564041363
H        12.14458535339472   10.21636766008005   14.56517310702699
H        12.32464465122159   11.38619850661192   13.24567549800922

