94
CSD_code = KECTUK | q = 0 | S = 0 | Stoichiometry = C36H49BCuN7 | MND = 3
B         9.32092316079637    1.76802248229236   14.89537644615379
C        12.53321101088526    5.74073922910160   14.33626440320936
C        13.56917391929117    6.23987398554652   15.34026390889497
C        12.96432183497008    7.38953198231321   16.18504077263318
H        12.59718461126110    8.17832516290931   15.51925676601667
C        11.79748566457969    6.86401424644650   17.01804356676469
H        11.34085049528320    7.69245892723276   17.56650964534389
H        11.05393088869093    6.42959600804647   16.35111085635599
C        12.29175593996590    5.79984330253066   17.99521482948923
H        11.44701346837056    5.42785939974677   18.58459076262679
C        12.90434109617856    4.64860618076735   17.20578164402081
H        12.14281617256737    4.18627865420801   16.57934913466315
H        13.28917943487400    3.88777242890545   17.88931579779827
C        14.05012594914242    5.17086663768617   16.34129651035231
H        14.48687501714062    4.33615237258878   15.78237107158120
C        15.11449890776236    5.76582915852299   17.26878629106802
H        15.47522684352922    4.98542392150121   17.94298772584244
H        15.97174158065638    6.12899166093507   16.69843729646680
C        14.51312946610336    6.90963359544329   18.08456518626464
H        15.28246125856258    7.33295810802383   18.74124121709211
C        13.34837718987032    6.39225583123053   18.92608970954458
H        13.70022376530743    5.62900067633796   19.62387272255770
H        12.92193501993193    7.20983705361934   19.51254769593843
C        13.99931265422927    7.99094979799696   17.13816702691903
H        14.83285183935558    8.44276748950535   16.59758210663081
H        13.52212677678961    8.78806992234533   17.71407254185297
C        14.72975708779626    6.72967682604398   14.44217301884050
H        15.21461676696788    7.62452620509658   14.81949020005103
H        15.48123453890567    5.94126663374700   14.36986353158668
C        14.12093727586268    6.98150814143875   13.06352743427569
C        13.80350435972265    8.45896934814715   12.81700874064554
H        13.25627990469519    8.57242291467480   11.88393889172619
H        14.73225109458540    9.01981985494107   12.73880354990515
H        13.21687556913588    8.88764674377847   13.62310223448483
C        15.04512824181419    6.51776497446689   11.94147008930625
H        15.35666496097373    5.48760402117960   12.08148503827602
H        15.93651386777065    7.14188517298601   11.93751595916515
H        14.55411588690456    6.61646108608161   10.97641970059149
C        12.05429661678649    6.07202360651514   11.98884450525308
C        12.31429771032965    5.09777420145832   11.01643726693879
C        11.62878662790204    5.16735337881804    9.80947372523341
H        11.82776737231256    4.43556077811891    9.04265049445270
C        10.68952281825626    6.15155105057155    9.57638753106022
H        10.18351304911768    6.20527761443954    8.62380598351223
C        10.35443779424344    7.02826815810892   10.59032683050362
H         9.56101489592454    7.74166986406189   10.43138125798740
C        11.01312541915159    6.99674345669267   11.81299570669912
C         9.21436100179167    7.28203925191966   13.48408525236035
H         8.44960403405087    7.24873151218879   12.71154677715294
H         8.84768904523205    7.89009610194133   14.30823207020259
H         9.38906826169026    6.27045327240552   13.84695304117787
C        10.30318720862879    9.33122131652659   12.51824154546542
H        11.18182586957944    9.73383137409564   12.01933577083553
H        10.09926092089991    9.93912311030694   13.39715113894414
H         9.45463449677880    9.42613317951889   11.84593165122212
C        13.21806558226751    3.91337882177408   11.27071052830414
H        13.74160322405172    4.06430856855014   12.21766471164522
C        14.23955176912065    3.67999605682216   10.15346437575317
H        13.75055198085717    3.31323222550693    9.25472102977345
H        14.96097361249051    2.92856356261616   10.46763858628122
H        14.77849311907967    4.58859818393218    9.89843957273621
C        12.34807357527279    2.66303616321579   11.43209381451754
H        11.65609833057989    2.79969409025870   12.25680196191998
H        12.97390678345684    1.79810388671984   11.64239612582245
H        11.77629283399741    2.46796773579749   10.52770673425393
C         9.06665172419566    3.94387701346169   12.03164268802380
H         9.36944421141678    4.84957013017429   11.54914893080239
C         8.15229931298385    2.98562645935996   11.59622459055951
H         7.58079349220797    2.98692872850503   10.69052138501541
C         8.15031777495830    2.03862878709543   12.59886062298531
H         7.59690921201222    1.12624135255555   12.69440694696887
C         8.92285092527462    4.74200117822976   16.89341883965852
H         9.15870436681850    5.77385476657884   17.05986228770006
C         8.00870691447212    3.94578528865234   17.58188057407805
H         7.38777093713935    4.22279445414207   18.40892993439407
C         8.08522148555133    2.72259419247101   16.95057636780477
H         7.55945511443942    1.80843543231331   17.13787753213171
C        12.91969444618194    1.89022201768416   14.78738767349491
H        13.80408367333717    2.48178733861218   14.65526382053041
C        12.80766876420544    0.51685028492405   14.99688803738212
H        13.59575383453915   -0.20438128240510   15.07250942739081
C        11.44778243364521    0.29935022223910   15.08446372209129
H        10.89715039293026   -0.60613379762894   15.24055268720910
C        10.51762329790252    7.87527969884905   12.93798605135561
H        11.24026626123504    7.85058643381768   13.75470292526300
Cu       11.07911520338303    4.40466966250280   14.53149842940294
H         8.68936362296776    0.77731295878287   15.04866896796619
N         9.50368554346825    4.04319037718088   15.93045870156926
N         8.98929997753768    2.81400735440348   15.96637192044007
N         9.57221812317324    3.59038676250139   13.20252024527264
N         9.01188856575336    2.43029484959257   13.54622711660254
N        11.71825849579212    2.44275957283199   14.75512415117321
N        10.82471765124186    1.47555160290424   14.93517701675463
N        12.87584676612039    6.17748749846473   13.15109639105117

