59
CSD_code = KECVAQ | q = 0 | S = 0 | Stoichiometry = C20H26CoN5O6S | MND = 6
Co        2.54807388501312    4.45172104741540    9.74337053878395
S         2.47645128463931    4.27250867703301    7.53707003009824
O         3.53993730439523    1.74037380890111   10.07952933171980
H         4.38227137614955    2.33583792632588   10.01768734199331
O        -0.12709422482671    5.29282459768317    9.58921566885231
O         1.56092017263134    7.15709562169363    9.30999867595798
H         0.72183360434200    6.55906933209530    9.41746463511318
O         5.21348481592011    3.62470391884054    9.97899527400965
O         2.05788901698200    2.93003592861537    7.20659143861573
O         3.75387431382280    4.69954323285596    7.01439946015534
N         2.51027988759425    2.58606427059568    9.90119550087229
N         0.68828289906545    4.30185196676894    9.66131725207998
N         2.60174655794043    6.29334242064466    9.42354187576422
N         4.41177937295577    4.57691036636693    9.71314649065248
N         2.52869795199634    4.69124218649930   11.76500723037397
C         1.32475971954989    2.10970159850784    9.78939214680594
H         1.13662624373720    1.04411711461198    9.80511258112753
C         0.29005980253145    3.07147868940775    9.66087956385301
H        -0.75617319481242    2.80712328995351    9.57963136703878
C         3.79771082292865    6.72671051553240    9.24064184284578
H         3.99465248742919    7.76198564193561    8.99119668672252
C         4.82386473230513    5.77039313223924    9.41924192317820
H         5.87509109138595    6.00353832610025    9.32316972320098
C         3.39390257420699    4.06394172406845   12.56371614119925
H         4.12137890464733    3.41446989966153   12.09631025888877
C         3.40136914109541    4.22095712815926   13.93442549885057
H         4.13415620140676    3.67727355698364   14.50810306853897
C         2.48162711659006    5.06512122291161   14.55586117453780
C         1.58563424472469    5.71030249812846   13.70917350060374
H         0.83518230021965    6.38172365751391   14.08973888096741
C         1.64148606187840    5.49881065551178   12.34400466517472
H         0.93166009307290    6.00018358818955   11.70101042175164
C         2.49056960506167    5.23888267599762   16.06019226161481
C         2.24066918007067    3.87164702628935   16.71275237167862
H         3.01390694040285    3.15627951596051   16.44768570113768
H         1.27992834689131    3.47134556713685   16.39630438217627
H         2.23012012645578    3.97620742226401   17.79481564167088
C         1.41363058849592    6.21394557393247   16.54126245160355
H         0.41870288847986    5.85825232103782   16.28434579714219
H         1.56181992230495    7.20347899436831   16.11541644416126
H         1.46686306331262    6.30433529391484   17.62360382533492
C         3.86372802551488    5.77811793558202   16.48586216495765
H         4.06180258580913    6.73257481784848   16.00296436251459
H         4.66175999363300    5.08942225284391   16.22386150649745
H         3.88324416025667    5.92697850533505   17.56261028259584
C         1.21924811348151    5.40778099372188    6.71970595666193
H         0.25916620164854    5.20497570928098    7.18130342768095
H         1.56308107193608    6.41900403874352    6.90780230837747
C         1.28170027959571    5.02383861226468    5.29758513150734
C         2.23172502566912    5.59646442417930    4.45702583734134
H         2.89724423516379    6.35181013340555    4.84711152362345
C         2.33350955946912    5.19232696542238    3.13921751604324
H         3.07402239505666    5.64291057845546    2.49465069271306
C         1.49454668695901    4.20607762997793    2.64715153592384
H         1.57753493955099    3.88811988359241    1.61815252699171
C         0.55515474734391    3.62224483755079    3.48094521190996
H        -0.09457239439138    2.84639448037170    3.10305193359578
C         0.45186152366235    4.02410405082309    4.79932974485548
H        -0.27038437335975    3.55942221793171    5.45384926936401

