88
CSD_code = KECVIY | q = 0 | S = 0 | Stoichiometry = C41H33CoN6O6S | MND = 6
Co        8.03540600574020   -0.41948462775765   10.76963276665786
S        10.20410364546525    0.04854652587199   10.70911924226600
O         8.12810538495381   -2.33802093293368    8.60753285030252
H         7.90116114825863   -1.41839410260209    8.18774974937588
O         8.41518883360904   -0.92075141531612   13.49162575967243
O         7.93719224868393    1.50427551553424   12.94179626867070
H         8.10133955367542    0.57040648193787   13.35533813874204
O         7.55469154144247    0.05415023633583    8.06689560102667
O        10.40656349185385    1.26079150217414    9.94582773086801
O        10.93436585598629   -1.11597569971851   10.25658255276429
N         8.37539679353789   -2.06020939601465    9.90687777185853
N         8.47999535163536   -1.42083957066790   12.30117703191418
N         7.90445282570242    1.27201476463575   11.59851736154959
N         7.72756015007200    0.59585989203827    9.21498304763278
N         6.01987505108043   -0.82144048450422   10.95658276754267
N        17.56583149895804    0.59657976537397   10.83428463594265
C         8.94406479598152   -2.94944365114365   10.65202973144789
C         9.40676361667935   -4.25564021345391   10.16686998959286
C        10.23073119227374   -4.31981925084050    9.04684444643211
H        10.52323879606686   -3.40500492810740    8.55618889056806
C        10.69448691161099   -5.54442583109328    8.60420033241997
H        11.34212428974723   -5.59122412970781    7.74164015301421
C        10.33121386704859   -6.70785168593972    9.26273392794499
H        10.69213785935213   -7.66339902799714    8.91185824370055
C         9.50548034610951   -6.64644691668501   10.37355346606592
H         9.22060931041922   -7.55249475374122   10.88770919916250
C         9.04674401787813   -5.42549827460223   10.83077282406236
H         8.39992932499515   -5.37632514965336   11.69456631445673
C         9.04480107517694   -2.56641726182655   12.04230645347368
C         9.78688546027436   -3.35998229489142   13.02929090285961
C        11.05659667134307   -3.82883146165941   12.69100987705152
H        11.45811409015969   -3.60756154202535   11.71356815056526
C        11.79826998402653   -4.53857148868880   13.61518623025763
H        12.78218967932514   -4.89673978845152   13.35029801476377
C        11.28558089873262   -4.78761780017131   14.87904018850036
H        11.86720487517898   -5.34608581631563   15.59747956742780
C        10.03185642803825   -4.31114990351754   15.22206463509409
H         9.63421702359348   -4.49575900548181   16.20907590441080
C         9.28374240779771   -3.59480444420143   14.30500468328298
H         8.30890831265637   -3.21797254009442   14.57348340959868
C         7.83667357374008    2.27266773655454   10.78047309718577
C         7.80194824431870    3.68033931506761   11.20157070585968
C         8.77362039214499    4.18357944174648   12.06073303427354
H         9.55666619143725    3.53483314372683   12.42050459699427
C         8.75106430275283    5.51532657212082   12.43062709774100
H         9.51456764300194    5.90096946541333   13.08965007907679
C         7.75356438371405    6.35198058865795   11.95918345305884
H         7.73684803705964    7.39149458024948   12.25073224593089
C         6.77604955068034    5.85277172523706   11.11390491309270
H         5.99416809502666    6.50124763789252   10.74781173953732
C         6.79911723331395    4.52511196970985   10.73138947330969
H         6.03437041510747    4.13556580795882   10.07633704833763
C         7.73015770221523    1.88689625049189    9.39550221882888
C         7.66904405131044    2.86654966113943    8.30147824326136
C         8.60824484151886    3.89407839722403    8.25161034536627
H         9.37997924218988    3.94057900432973    9.00383033131957
C         8.56979015080216    4.81558144277829    7.22333259524337
H         9.30288445903117    5.60776469089687    7.18638593421114
C         7.59940848497676    4.72225886130455    6.23833643781873
H         7.57079014443092    5.44583851413518    5.43696834180602
C         6.67503245590721    3.69248327328818    6.27565949410921
H         5.92512948803450    3.60997364942106    5.50263670977460
C         6.70901338656542    2.76366310135128    7.29992304669522
H         5.99079923905125    1.95830643371414    7.32650696202989
C         5.26908735052986   -1.15313751775908    9.90727533056138
H         5.75678139599252   -1.19615166015778    8.94255022635348
C         3.91639132356449   -1.42797125894106   10.01316912071779
H         3.35407290884537   -1.69303610218622    9.13225699073474
C         3.31066947876583   -1.35626534073627   11.25696788651928
H         2.25787598906550   -1.56401980255596   11.37366503132455
C         4.09284183981111   -1.01113170067047   12.34728513686743
H         3.67129794289332   -0.94116697940162   13.33721485327533
C         5.43894513068280   -0.75363104032648   12.15392326128111
H         6.06623404826289   -0.49262616179744   12.99514439269139
C        10.94283641949989    0.45856927334410   12.40313474286724
H        10.50942648440572    1.41376161501962   12.67744936358527
H        10.66699342725158   -0.32946091788633   13.09450530228709
C        12.38445465952408    0.51268115370475   12.12771798702086
C        13.17987149887020   -0.61492264671219   12.32880839701987
H        12.73852291665754   -1.50631434261604   12.74994285915006
C        14.51714666259505   -0.59961238656523   11.99577189881521
H        15.13398913287509   -1.47214954119680   12.15372851305662
C        15.08063920827117    0.55198080515324   11.44247492183707
C        14.28809944138922    1.68101660089402   11.22535771968428
H        14.72801168540017    2.56478543442233   10.78701156678229
C        12.95243485718435    1.65510606655783   11.56461769728789
H        12.33176364958163    2.51800451128316   11.37731365472610
C        16.45066022461855    0.57528938064825   11.10272618775276

