66
CSD_code = KECZAT | q = 0 | S = 0 | Stoichiometry = C28H34OP2Ru | MND = 7
Ru       12.11817863012682    0.10319405966245    0.80562961741080
P        10.34784806427631    0.80015625169497    2.09952555444134
P        12.81557756918318    2.15872446282295   -0.08431086480058
C        11.78703652261245   -1.89581123875301    1.49916910741494
C        13.11112906723358   -2.47318123824873    0.99642537399727
C        13.85854414651760   -1.25030780503286    0.47781499833371
C        14.25892688630580   -0.20173521278404    1.31567302772209
C        13.56751030159505    0.15795634342998    2.48975489819078
C        13.91823194327008   -3.27445913489073    2.02233474736449
C        11.12400734968890   -0.38244265095446   -0.66423445016799
O        10.49357713960766   -0.76419325543386   -1.55546402785888
C         8.85483252508943   -0.25262463230667    1.93030957051069
C        10.56181388558851    0.75338900817971    3.92188608754001
C         9.52975331825044    2.44191647440408    1.93621808155848
C        14.00053855043447    3.12030889656582    0.91760300595998
C        13.55231633714541    3.58711786404264    2.15220928933791
C        14.41055612428236    4.24695356427454    3.00980598857846
C        15.73835723381441    4.42698467487236    2.65370483767919
C        16.19995320165631    3.93693035443123    1.44379802448032
C        15.33951185759596    3.28205225178926    0.57945928361438
C        13.61896846992248    2.17780542368417   -1.73106320157479
C        13.77281058417780    0.98933589422459   -2.43123251581376
C        14.34118431549040    0.99047370485284   -3.69364303146226
C        14.75431775644028    2.18153976021569   -4.26459798399548
C        14.59247429570127    3.37383037165758   -3.57462188698434
C        14.02348868754438    3.37613441121466   -2.31603674776333
C        11.56241432528557    3.43034162383383   -0.49774985408364
C        10.49017677875482    2.98481816051730   -1.26705351609524
C         9.51366743476303    3.86623351733700   -1.68862356356699
C         9.59406100443336    5.20529651969486   -1.33857796040905
C        10.65674539009716    5.65441958261987   -0.57419364998014
C        11.64300892809889    4.77527895568898   -0.15902638171285
H        11.69071132657341   -2.01665416016354    2.58575748540831
H        10.94501983293833   -2.43420959622990    1.04880902232851
H        12.92028447028412   -3.13178979721347    0.13895030045815
H        14.47539908096300   -1.42206753102027   -0.40687088795011
H        15.02124986986018    0.48461044468924    0.92864925751475
H        13.27638459250037   -0.62528025640797    3.18430040558493
H        13.96049880340360    1.03044988709398    3.01362497122936
H        14.18176618384918   -2.66293754729794    2.88251098747992
H        13.33776402841086   -4.12797635747165    2.36920953397536
H        14.84007736742709   -3.64316292742771    1.57400237559040
H         8.04570540144781    0.11597491363103    2.56073594155980
H         9.10591792013198   -1.27328950746552    2.21028575709341
H         8.54420722459947   -0.24481480934036    0.88569713864473
H        10.87693623293153   -0.24637281433836    4.21346428801625
H         9.62422147369110    1.00008791306483    4.42028062331868
H        11.33353234401865    1.46282639035671    4.21539575130482
H         8.72715835288547    2.53084812373089    2.66852284657069
H         9.12074307853377    2.53267790368157    0.93106430114846
H        10.24852880663203    3.24529761825201    2.08593837024726
H        12.51944611423037    3.41513720592412    2.43144733306494
H        14.05036117767199    4.61341394877358    3.96075135747842
H        16.41382755259026    4.93797548033652    3.32396769062443
H        17.23839113130617    4.06132620108258    1.17195767247127
H        15.71160050676177    2.89488987680410   -0.35948975677028
H        13.43342620638860    0.06551282359535   -1.97810676156151
H        14.45805077607992    0.06162699561705   -4.23267704564464
H        15.19768772172118    2.18512436196535   -5.24964897547612
H        14.90774304270377    4.30469283275439   -4.02383535007329
H        13.88961011637313    4.30685187526925   -1.78116174028009
H        10.43242731732951    1.93347060863411   -1.52173760625299
H         8.68799339211612    3.51168340559928   -2.28841575945314
H         8.83064470224246    5.89690466920883   -1.66324401780175
H        10.72413342997009    6.69836144790283   -0.30287272793311
H        12.47093179644112    5.14227341309851    0.43164536022733

