58
CSD_code = KEDDON | q = 0 | S = 0 | Stoichiometry = C23H32IrOP | MND = 6
Ir        1.84881875222934    5.68847434541038    2.72679254669498
P         0.17627713063147    6.06602869183941    4.32116278374497
O         2.81641523260461    4.85000606106814    4.37981036878525
C         2.73528512743305    4.11371084366357    6.72194265260670
H         3.02165337060474    3.07885993992607    6.52408848580763
H         3.62705929915309    4.64078206884634    7.06829950621889
C         2.17000131058364    4.76969881008306    5.48068864046805
C         0.88911922844077    5.22827167868094    5.73059051234404
C         0.50590041848309    4.87734374382796    7.07963715964976
C        -0.66969183793017    5.04838624117205    7.79892112677145
H        -1.52976404661803    5.53081862469175    7.35933745648914
C        -0.73780507101683    4.58552980747300    9.10326514028489
H        -1.65227136230784    4.71933389706452    9.66442492087140
C         0.34142994122487    3.95483494104255    9.69830436249396
H         0.26684802226945    3.60374340070659   10.71703798712085
C         1.51923665813656    3.76516552392294    8.98425375098516
H         2.36162013962348    3.26472649423548    9.44146610237993
C         1.59453901371112    4.21885911689321    7.68861150347440
C         1.22603872383192    7.11161253862850    1.30028970826130
H         0.44922156577515    7.78244874567898    1.66772537811395
C         0.81514022889987    5.83007681522414    0.87610399182000
H        -0.24291185785252    5.59784823757979    0.97937199966631
C         1.48204321295514    5.09216041459998   -0.27125715582075
H         0.73418294830487    4.49181509633763   -0.79226258214783
H         1.86575790852432    5.81863533148480   -0.98863208383704
C         2.61252845342630    4.16357957422700    0.21290637695598
H         2.19895131445686    3.17231760361500    0.40633364736033
H         3.36926563196641    4.05173794513739   -0.57067043010870
C         3.26912163957082    4.65033886840046    1.48251421121141
H         3.69363385228571    3.86108089684764    2.09662815402459
C         3.73184149654195    5.93942566775865    1.68324606595416
H         4.47131074403954    6.08881710323033    2.46449868624831
C         3.68619573640538    7.01669161758680    0.62270339411912
H         3.77290189406344    6.55165620373867   -0.36000529529470
H         4.54790276942127    7.67507362427286    0.74525945521672
C         2.39908931105755    7.86199628683375    0.70266483352868
H         2.58757216887472    8.73746579883574    1.32735155318562
H         2.12951638120072    8.23070340977395   -0.29276678088565
C        -1.57296518428062    5.43126982344722    4.20692480810322
H        -2.02059167312393    5.49689721757310    5.20357609944064
C        -1.48289035740357    3.96174367336664    3.80621185918762
H        -0.89346926684486    3.40977550260346    4.53676673102214
H        -0.99982244211381    3.86499281546747    2.83470003797396
H        -2.47329594317536    3.51277071259264    3.75028611058683
C        -2.41645192235862    6.22904803298150    3.21993111796056
H        -2.54763648528461    7.25656663410720    3.55165731128027
H        -3.40263649537044    5.77705385980609    3.12013795827258
H        -1.94722229971447    6.24315961157012    2.23857859027870
C         0.00300794098855    7.86630988945098    4.80863991627529
H        -0.46838479730453    8.37627921924565    3.95974325980224
C         1.41921528041870    8.40847919167060    4.98295586260610
H         2.01513625547446    8.20838510070518    4.09156031827620
H         1.90112128854708    7.92124380732377    5.82938622100770
H         1.40563837596043    9.48217078680762    5.16345983456134
C        -0.82340823043112    8.10340243360625    6.06557785584773
H        -1.84654698742075    7.75484063003839    5.94430011048980
H        -0.85625362941492    9.16923000002116    6.29058196024317
H        -0.37491887825197    7.59102504722032    6.91328590198466

