69
CSD_code = KEDFIJ | q = 0 | S = 0 | Stoichiometry = C26H36Br2N4Ni | MND = 4
Ni        8.38997334102848   10.16179643042892    0.00015392846710
Br        7.64061784794418    9.25567044976219    1.98845844462886
C        10.18354456828343    9.94410793950008    0.55169297553300
C        12.25575193687136    9.18519242791198    0.88512508735975
C        12.09456125165115   10.37049393142616    1.62265039426828
C        13.11939785200663   10.87964229886798    2.40498359670234
H        12.99716587024608   11.78464708973918    2.97873340728847
C        14.30708843150416   10.17450863473138    2.42385924178043
H        15.12851368135760   10.53840197019488    3.02179817816411
C        14.47058971924059    9.00213559467638    1.68822737097735
H        15.41598116677820    8.48335371385840    1.73116142149282
C        13.45286382298758    8.48614346218308    0.90962303877401
H        13.59084417958249    7.57450873779728    0.35034129878339
C        10.24467078243526   12.02877544188169    1.87941907040128
H        10.47154104005312   12.11922788944778    2.94623607106557
H         9.15356355084671   11.97004922526879    1.75978145420996
C        10.78436809035441   13.23609669789473    1.10920572467131
H        10.46578938419179   13.16575475977272    0.06711395192766
H        11.87637101597967   13.21240028039323    1.12315629976091
C        10.29165553262928   14.54107598410261    1.71750476653946
H         9.20488255718443   14.57302864698332    1.72737225546657
H        10.65450263626809   15.38660440117491    1.13944416663984
H        10.64582144095199   14.64567380648538    2.74119325928998
C        10.77731461803256    7.86361136894988   -0.64671296091018
H        11.72797698448607    7.46472692390891   -1.00683590373670
H        10.21992251643911    8.25120763314847   -1.50781371494338
C         9.96471147721030    6.76707957903316    0.04674730280334
H         9.02859690981489    7.19695036312046    0.41081952067270
H         9.72155511668444    6.00330588975898   -0.69448302233913
C        10.71189839138756    6.13465053061942    1.21243124622186
H        11.64478899669039    5.68520421823786    0.87693257699934
H        10.10150100608306    5.36000096828671    1.66896857352901
H        10.93722553397040    6.87658135667935    1.97518620550926
N        11.06044127775056    8.96811186804059    0.23763386916319
N        10.80928300677271   10.79811982633706    1.38589279675421
Br        9.13944736895530   11.06788282548806   -1.98800568745604
C         6.59661644262039   10.37985466931962   -0.55191600939129
C         4.52437157419731   11.13870180356364   -0.88520159369025
C         4.68553409331558    9.95337961139044   -1.62270223438744
C         3.66066156527409    9.44419543087107   -2.40496049154005
H         3.78287309796304    8.53917594584560   -2.97869078800843
C         2.47297676827175   10.14933882637195   -2.42382271328008
H         1.65153588132874    9.78544073401202   -3.02173637421331
C         2.30950096518342   11.32172801147420   -1.68821001938158
H         1.36411214341650   11.84051533983855   -1.73113036561981
C         3.32724841075947   11.83773028653497   -0.90964174251117
H         3.18928579631946   12.74937317176874   -0.35036844891932
C         6.53538839705840    8.29504320318628   -1.87941178622188
H         6.30850185773492    8.20453660897109   -2.94621850693719
H         7.62650209827022    8.35375651512921   -1.75979791508729
C         5.99568120201899    7.08775391833770   -1.10914920121304
H         6.31423558165421    7.15813696327591   -0.06705314165725
H         4.90367857649438    7.11144654932726   -1.12312361165050
C         6.48840294725903    5.78274565099003   -1.71738361805034
H         7.57517591889467    5.75078497915186   -1.72720747737942
H         6.12552759363411    4.93723394840987   -1.13931532721339
H         6.13427916892699    5.67812013955697   -2.74108399709962
C         6.00283064732597   12.46025847532686    0.64663953278987
H         5.05217542195963   12.85912677891820    1.00680231039894
H         6.56025397022874   12.07265117594508    1.50771465730708
C         6.81541852252155   13.55679218666836   -0.04682935534761
H         7.75154208960071   13.12692392802305   -0.41088480624187
H         7.05855536247368   14.32058284845627    0.69438955309469
C         6.06822682302061   14.18916767687175   -1.21253768078955
H         5.13531650817051   14.63859030656382   -0.87706189546125
H         6.67860803262473   14.96382416373656   -1.66908381000335
H         5.84293692876456   13.44721083387340   -1.97527849783759
N         5.71970349634094   11.35579793814077   -0.23775818298736
N         5.97081921171178    9.52575821404611   -1.38598266792615

