61
CSD_code = KEDFEF | q = 0 | S = 0 | Stoichiometry = C26H28Br2N4Ni | MND = 4
Ni       -0.92659960730867    0.00050632472490   12.74182633666478
Br       -1.59280363250840    1.58965769120468   11.21900806429993
C         0.84162556100200    0.65284933036934   12.63563909931604
C         2.67264947990267    1.88283817858911   12.97316138039030
C         2.92656612952273    0.99280897744839   11.91620868179040
C         4.14745374861346    0.97963735909846   11.26179575213920
H         4.34078589226635    0.30455636556935   10.44368687558741
C         5.10110820329172    1.87949026417658   11.69859643636835
H         6.06495281629753    1.90301583648125   11.21359329543641
C         4.84919605859856    2.76284051054205   12.74713034628157
H         5.62376465908708    3.45037849394050   13.05066298121655
C         3.63308622382812    2.78367082431372   13.40337114506321
H         3.43755758297816    3.47493626050992   14.20732137549885
C         1.58509490861827   -0.78450394889050   10.76842401601672
H         0.66011938340026   -1.31809334377130   11.04489212794446
H         2.41779558247773   -1.49275298326653   10.81948717319804
C         1.44500157929070   -0.21251453834270    9.38882672956106
H         0.74006225543876    0.60373040498098    9.30312326987266
C         2.11003777378431   -0.65448736425676    8.33959444323304
H         2.81168740468117   -1.47065432841762    8.41196992532429
H         1.97190628795384   -0.22847920005662    7.36141929564395
C         0.70138456176618    2.32053776985672   14.45502874500068
H         1.34857835052702    2.35605383151394   15.33653281634688
H        -0.19024621483003    1.72226277350327   14.70441502577044
C         0.28427996501539    3.69884383731725   14.03384377817017
H        -0.24244880801342    3.74743251097209   13.09010132912828
C         0.52330342205098    4.78679237857418   14.73928228105056
H         1.04486217125285    4.75116225661460   15.68276365093847
H         0.19675294051347    5.75768271426409   14.41046437846355
N         1.38492026547797    1.62919772052415   13.38763788424927
N         1.77720289095046    0.25386914372280   11.75277275831359
Br       -0.26092047295202   -1.58786161962759   14.26523085808543
C        -2.69403607831718   -0.65354664254833   12.85080702975170
C        -4.52533138251848   -1.88298835301950   12.51280330084548
C        -4.77921067292039   -0.99302025127603   13.56981489805240
C        -6.00019152502991   -0.97970687172414   14.22405482327372
H        -6.19353206879132   -0.30466158350976   15.04219008050275
C        -6.95386455632840   -1.87950896699449   13.78717860068543
H        -7.91772396915673   -1.90303389037553   14.27215049654209
C        -6.70197326607370   -2.76278695061156   12.73857852500178
H        -7.47656334484270   -3.45026395572637   12.43496485218688
C        -5.48586441741308   -2.78359365403195   12.08234881059265
H        -5.29035789868231   -3.47477290320383   11.27831783976321
C        -3.43775587684898    0.78432832791672   14.71756814849567
H        -2.51273578982327    1.31787313672025   14.44118294094040
H        -4.27044160588257    1.49259650845424   14.66640537661570
C        -3.29775936438831    0.21229867360495   16.09713996319234
H        -2.59283683633084   -0.60395993367736   16.18282629566090
C        -3.96285259184743    0.65421305049204   17.14635143329044
H        -4.66449309282020    1.47038653147526   17.07398869668369
H        -3.82469840510761    0.22819706244146   18.12452097764682
C        -2.55418536432597   -2.32045364513700   11.03072158798690
H        -3.20142643410446   -2.35578695305461   10.14923101833312
H        -1.66256530227103   -1.72214796959817   10.78141608800461
C        -2.13696086394748   -3.69877595289020   11.45167968928319
H        -1.61025691173260   -3.74744783410838   12.39543626137988
C        -2.37593806951469   -4.78664468706435   10.74611500695049
H        -2.89767504934261   -4.75095266262822    9.80273633650191
H        -2.04955438381263   -5.75758592660315   11.07495455847007
N        -3.23756780391754   -1.62944371495483   12.09842446678268
N        -3.62976443688367   -0.25421442054993   13.73337964021887

