45
CSD_code = KEDFAB | q = 0 | S = 0 | Stoichiometry = C18H20I2N4Ni | MND = 4
Ni        0.00013414602824   -0.00016930945875   -0.00007808359108
I         0.92458304211854    1.13874419368823   -1.99849727818830
N         2.46217493179048    0.47032477209585    1.45502552705192
N         1.03614509742415    2.08941954480491    1.71068676963219
C         1.23543587167834    0.90330476183857    1.10236432832175
C         3.05640216338130    1.37489477212714    2.30495437620249
C         4.28717731631374    1.39188699521791    2.94039039995521
H         4.99680885639112    0.58861952124501    2.82048791794297
C         4.56447853524797    2.48511560150880    3.73961693580826
H         5.51261374854714    2.53610632701968    4.25247319429230
C         3.64992334012094    3.52407367180411    3.90268184080253
H         3.91010063737455    4.35665842242924    4.53803269847580
C         2.41916815888991    3.51360857029751    3.27348850995324
H         1.71297867693709    4.31803310514766    3.40526437936283
C         2.13456529390687    2.42194632031276    2.46973282108405
C         3.05087334200035   -0.76274836993267    1.01120557909093
H         3.06854388988991   -1.49654130395829    1.82098542744455
H         4.06670419710589   -0.58822295747597    0.65483122235538
H         2.45078496817817   -1.15638606023830    0.18449729347919
C        -0.15623286351438    2.88061640017942    1.58416352447472
H        -0.76880279782489    2.45796213060379    0.78088645286455
H         0.09883458860055    3.90941881630773    1.32640270520013
H        -0.72898828939376    2.86785232344904    2.51474685261959
I        -0.92370949467816   -1.13855685909800    1.99909206037881
N        -2.46214343305511   -0.47044378864917   -1.45484923788166
N        -1.03628169449083   -2.08968250764799   -1.71062003782286
C        -1.23549433930015   -0.90364159174804   -1.10215922933223
C        -3.05641250906664   -1.37484190061465   -2.30493011257599
C        -4.28712426943876   -1.39158239874245   -2.94048064075967
H        -4.99664172077190   -0.58821581651477   -2.82056579404109
C        -4.56450872246385   -2.48468977475811   -3.73983947568453
H        -5.51262024423360   -2.53550889314822   -4.25275264013879
C        -3.65007859646801   -3.52375516553107   -3.90294003306597
H        -3.91032232478582   -4.35624485226914   -4.53838748175875
C        -2.41936551074383   -3.51351579119568   -3.27366806300734
H        -1.71326789507466   -4.31801356283146   -3.40549305014171
C        -2.13469092391202   -2.42198843068904   -2.46976700473643
C        -3.05068317235653    0.76268649690826   -1.01101550374793
H        -3.06801033809028    1.49661396055331   -1.82080319439720
H        -4.06669976039367    0.58824916367809   -0.65488195336587
H        -2.45065923406402    1.15610842395551   -0.18404744867552
C         0.15602893684258   -2.88099673682790   -1.58416168752815
H         0.76849814079728   -2.45866591085404   -0.78063732600712
H        -0.09916727158502   -3.90986454517938   -1.32679028371082
H         0.72894752614072   -2.86796776780945   -2.51464525663419

