102
CSD_code = KEDGEG | q = 0 | S = 0 | Stoichiometry = C55H40FN4ORh | MND = 5
Rh        7.13045472653001   14.27662573952515    3.01172309354664
O         7.55125075611745   11.54611739148518    2.74420343935616
N         8.96384500974559   14.10309899392522    2.19255360614607
N         6.43509487370207   15.01769762754106    1.26305593050571
N         7.86090477622558   13.70117582481562    4.80012790026758
N         5.34590253169628   14.65864737351412    3.87875233387043
F         1.57948648404711   11.67363107430361    0.54293617495528
C        10.08596666596686   13.64228543142059    2.81544043659770
C        11.18374071430691   13.62831295391469    1.89095025958626
H        12.18078661084412   13.31202949026591    2.12657088128052
C        10.70774010567859   14.07769697083852    0.70775522478145
H        11.24157548584583   14.21841074546087   -0.21160637113646
C         9.31136391898765   14.35059833436999    0.89697849567162
C         8.46080128329987   14.79121052286102   -0.11441946531826
C         7.11196970479517   15.08246801305549    0.07901231353856
C         6.22049078727147   15.48544726566736   -0.96924095833210
H         6.49312212991440   15.58961630792779   -2.00110351204423
C         5.00774355753281   15.67928275525473   -0.40149198681148
H         4.09342882314651   15.97136665554853   -0.87907289987775
C         5.15108856396027   15.39885918350850    0.99725590458310
C         4.11426248892266   15.50638714902941    1.92206442035907
C         4.24011190257943   15.18113205282986    3.27102115589072
C         3.19903191860271   15.37093209793471    4.23867700054472
H         2.23957033625297   15.80241413669749    4.03191399385246
C         3.67908535328580   14.93427710604716    5.42581550720872
H         3.18941878228587   14.93667576932412    6.37988775402688
C         5.01750979962910   14.47622123569633    5.19133538675654
C         5.84258336338580   13.94657778221097    6.18207046071289
C         7.16902433325920   13.57768865499512    5.96958631442994
C         8.01701302017649   13.00864466925160    6.97792434917679
H         7.71627665354147   12.79488549189320    7.98483836519200
C         9.22416132016279   12.80140085672692    6.40463209958309
H        10.11174374730624   12.40266545632877    6.85523129110468
C         9.11754430617022   13.22988683974959    5.03916068329943
C        10.17473822673128   13.20153519848361    4.13320652552262
C         9.01718679241590   14.94675365624880   -1.47483212449505
C         9.49365591380626   13.84137362274990   -2.17340938870536
H         9.44820496312626   12.86476194760120   -1.71324736514526
C        10.00933521059803   13.98635426130441   -3.44648569525996
H        10.37003195706114   13.11779873902629   -3.97924696336421
C        10.07132745540540   15.23512546850788   -4.05522873539566
C         9.59896248717355   16.33631983428166   -3.35333614869650
H         9.64115637686477   17.31651190966459   -3.80698144275342
C         9.07486278534865   16.19648305014172   -2.08134908186024
H         8.71655718404109   17.06311385509084   -1.54456733726602
C        10.62090378735347   15.37555903646536   -5.44192190754867
H        10.82703589642260   16.41701282373925   -5.67591363315807
H         9.90220418794791   14.99702889590381   -6.16936750492457
H        11.53880100288864   14.80114350982475   -5.55210661863402
C         2.80844241302717   16.00566935843929    1.44591134533652
C         1.67048852683164   15.21131487686647    1.53140690096794
H         1.74956260021338   14.21887364326810    1.94884701357081
C         0.45102560000879   15.67598208362769    1.07471120788114
H        -0.41805195008976   15.03699624002111    1.13982147572379
C         0.33020680867296   16.94863754573404    0.53301759416010
C         1.46769212450446   17.74583213093207    0.45873871257965
H         1.39118679345976   18.74197180904372    0.04576958659356
C         2.69032391350229   17.28241771844904    0.90311899278655
H         3.56388716696022   17.91575030797551    0.84400314247825
C        -0.98793861296765   17.46563290814130    0.04318336377572
H        -1.75808506848761   16.70228854391036    0.11847534009277
H        -0.91037421231124   17.78209937882380   -0.99616847294632
H        -1.29715912417361   18.32993240007682    0.63055289850010
C         5.27752567338864   13.77606005588061    7.53686538137683
C         5.79344183752936   14.48767380240091    8.61579986526820
H         6.61016476588802   15.17640920988943    8.45387817601963
C         5.25966610328990   14.32988636324083    9.87977484243278
H         5.66796135467208   14.89387030986487   10.70662359253181
C         4.20333154505688   13.45440444980284   10.10587482227812
C         3.69305820589523   12.74322585211127    9.02783072531430
H         2.87369971740610   12.05529228284589    9.18250015211345
C         4.21830611042561   12.90299917588514    7.75890290412563
H         3.81351766736341   12.33812596061109    6.93127804637891
C         3.62349351695103   13.30297525639963   11.47901356962715
H         3.01359684609990   12.40559351682125   11.54829904073734
H         2.99508816942652   14.16214570351141   11.71597093230916
H         4.41251732881308   13.25208662102928   12.22688732264804
C        11.46768990779308   12.65598150221838    4.59997924775450
C        12.58187571214512   13.47371218322062    4.74282106013901
H        12.50119255897289   14.52729656666865    4.51618440285234
C        13.78422232892170   12.94990830944106    5.18327196238896
H        14.64001152290240   13.60126623066463    5.29299400706481
C        13.90603561659692   11.60051709796818    5.48508363891523
C        12.78830187397881   10.78540341436350    5.33799440887079
H        12.86700789307533    9.73185442320053    5.56674348595731
C        11.58358009302001   11.30312911148670    4.90498507765791
H        10.72235889269111   10.66198436834863    4.78741190489208
C        15.20379017224456   11.02285601807474    5.96245137967287
H        15.98758561353055   11.77618023529722    5.96962703876524
H        15.51450467803940   10.20179931918038    5.31766665403269
H        15.09344731179854   10.62773835412384    6.97202154838151
C         6.73738845569745   12.40193173270195    2.56859698743028
C         5.36578406046827   12.20932866650073    2.02602806335035
C         4.30795853743523   11.93510608718314    2.89084063663781
H         4.49224407221146   11.86295169666502    3.95190091189637
C         3.03145793205033   11.75109450947439    2.39455691298349
H         2.20116896095338   11.53672029730715    3.04931672170255
C         2.82613851507594   11.84465617331824    1.02885797076365
C         3.86144261441399   12.10209036158757    0.14902650490950
H         3.66491706741344   12.16029549816897   -0.90954651307913
C         5.13622629467768   12.27867531066908    0.65344397229329
H         5.95933443017240   12.46903126360589   -0.01829862251352

