92
CSD_code = KEDJUA | q = 0 | S = 0 | Stoichiometry = C38H46N4O3Pt | MND = 4
Pt       10.12240976456973    8.23137686300873    5.61388610647321
O         6.59667981090756    6.23108651123567    2.01723117725953
O        10.24970322190612    0.58066426082217    5.24482126618692
O        12.92974565712766    1.81618476872654    8.67524114936938
N        11.51071798688518    8.91573108389473    7.05876194251603
N         9.92179312830516   10.14309101975212    5.41386451020661
N        10.44311533531833    2.81120546372627    5.66213978478402
N        11.58028794128803    1.24673231500447    6.94713504355479
C        12.28486386163253    8.20740639217704    7.86953108257816
C        13.14117785764745    8.79283843555729    8.78659274709366
C        13.18875767975520   10.17764630121188    8.85783175930468
C        12.38323129185524   10.91988395074270    8.01250932414865
C        11.54542837471763   10.26429210811411    7.11327968246087
C        10.65330270907489   10.96120262366101    6.17594867244345
C        10.53041526807345   12.34212588780806    6.04092621595798
C         9.63606482691166   12.83559273130044    5.10093473636151
C         8.88927846739697   11.96734705924894    4.32311393234754
C         9.04815446980489   10.59104567382810    4.49733241979061
C         8.36697088746994    9.51487864879606    3.79395351887750
C         7.41012320339018    9.71962590342949    2.80612000558726
C         6.79268229008009    8.65170004235501    2.18424526305965
C         7.13404912708042    7.35163462580962    2.54993919168322
C         8.10319785480355    7.14055439845048    3.54007701651784
C         8.73352387337397    8.19054952676690    4.17881230698820
C         5.54457053988545    6.33460440835058    1.07829341902099
C         5.07798482179808    4.91595014789666    0.77540593559777
C         3.88028025985301    4.87822439189825   -0.16776233202569
C         3.41912092260873    3.44249337138836   -0.40498471874297
C         2.20312355897657    3.35778628267066   -1.32301883537598
C         1.74298497193104    1.91466783813406   -1.51500549374335
C         0.53204731958932    1.80984972041593   -2.43829261452906
C         0.07346447424041    0.36660957456263   -2.60662152082611
C        10.37611656346352    6.30565870874450    5.85215892027383
C        10.65148798493192    5.14924436137134    6.11636402305104
C        10.98529188008668    3.81309661623033    6.42841090374448
C        10.72017863911399    1.48138952916041    5.90557866092155
C        12.18868332548760    2.18406725285574    7.78546629661010
C        11.83445339995943    3.53437345870724    7.45780777121076
C         9.50199006844670    3.11341741920876    4.59867663890120
C         8.08760089353324    3.33095640755420    5.14468690829764
C         7.02766604935382    3.19957912414130    4.04986174343076
C         6.73741906014890    1.73906282415755    3.70412633010931
C         5.74350907589073    1.60231369185723    2.55397729873343
C         5.45482635536004    0.14186342755277    2.21485798688830
C         4.46252756100510    0.00434699080285    1.06275312124528
C         4.18375734078497   -1.45321467075934    0.71824030937263
H        12.20726794463850    7.13254936461286    7.77181619235993
H        13.75282927728177    8.17885136600437    9.42718246293475
H        13.84240243503184   10.67212033148508    9.56015738379290
H        12.40403216478522   11.99692408592264    8.05097190375954
H        11.11139979210559   13.01836259063328    6.64569222899219
H         9.52474810404421   13.90241221521312    4.97784079972384
H         8.19536304013373   12.34954323548830    3.59277676074850
H         7.13467074661369   10.72212671676934    2.51129764164468
H         6.05455213755268    8.84031470050352    1.42043613152491
H         8.33754698174673    6.11827767282806    3.79242653668855
H         5.89549748649828    6.82897319335841    0.16171306171831
H         4.71716310036183    6.92257042805141    1.49892773068141
H         5.91127146499185    4.36207418241067    0.34064711654267
H         4.81980568465535    4.43639332892243    1.72038254517602
H         4.14673257029947    5.34033042083982   -1.12117430825842
H         3.05909022679232    5.45655227372889    0.26237356142412
H         3.17597698780612    2.98428540731295    0.55563749225970
H         4.23976147687691    2.86997258167414   -0.84195090531510
H         2.44902913868897    3.79288247040633   -2.29468258094968
H         1.38529914775871    3.94423890180084   -0.89711765625089
H         2.56473252556940    1.32659230502647   -1.93003595713406
H         1.49143502052126    1.48520678164226   -0.54251285347200
H         0.78590572201727    2.22693207404772   -3.41552058572204
H        -0.28695453737282    2.40514922786922   -2.02797251759010
H        -0.78716812599767    0.31148491717564   -3.26897372407985
H        -0.20544152143234   -0.05903644578082   -1.64518577323490
H         0.87155664010249   -0.23968438637638   -3.02943115133732
H        11.79202641479803    0.27229095905945    7.12777847641191
H        12.25781081455031    4.32675968003562    8.05041146591113
H         9.51424817237014    2.25475604160070    3.92522049071000
H         9.84742400107362    4.00385925928377    4.06871514562756
H         7.89150676391702    2.58523375620147    5.91873962901458
H         8.03549473143700    4.31964867471539    5.60530824600960
H         6.10496842269054    3.67177803028717    4.39352294057439
H         7.35444725431048    3.73752585070840    3.15781982637330
H         6.33534534342249    1.23728415250275    4.58738272223529
H         7.66303973461160    1.22768603874743    3.43656823200215
H         4.80837053106220    2.10096400025933    2.82211152138226
H         6.14350363299938    2.10413356972781    1.67040796282933
H         5.05466983938390   -0.36230139241398    3.09753314605849
H         6.38931336971228   -0.35657553886910    1.94782644664592
H         3.52551247241609    0.49679203634479    1.33271757925617
H         4.86020208020000    0.51456295257750    0.18265403409134
H         3.47324781101043   -1.52402667416996   -0.10240849197961
H         3.76946512787904   -1.97596128123285    1.57772689844723
H         5.10153789424667   -1.95684752927121    0.42333258404958

