57
CSD_code = KEDKEJ | q = 0 | S = 0 | Stoichiometry = C28H26Cl2Ti | MND = 12
Ti       14.06013904777461    3.82212426840641    2.99482243727877
Cl       14.40915647440863    5.37980818531614    1.44129981382020
C        16.40890622035124    3.63116379092758    2.64158229846638
C        15.80454763112316    2.37649588132201    2.42303149059892
C        15.28676124031514    1.94977856916179    3.67685128958592
C        15.52114470674880    2.95362307629704    4.64270951667020
C        16.22648916083690    3.98897006252656    3.99212935451193
C        16.99282334786526    5.22655034450041    4.33611361960809
C        17.39175906494259    5.76546953371037    2.94523355776254
C        17.36627369047972    4.56139541218616    1.95834271667831
C        19.55115165688790    4.31253219538945    0.75183134737409
C        20.82609381335963    3.79155790792420    0.62189411106063
C        21.30548282070501    2.88894299358943    1.55557285871671
C        20.50148169813389    2.51206254494438    2.61740007998759
C        19.22681162159693    3.03445602820596    2.74728310133921
C        18.73732466564752    3.94098787794532    1.81485925506162
H        15.87537632937166    1.77517009037594    1.52500308350809
H        14.89754397653451    0.96374335543243    3.89485204610404
H        15.30416309044859    2.88232603131283    5.70170772316663
H        17.87649161629777    4.96185402599364    4.92637013717237
H        16.41140980491627    5.95566159072015    4.90387933307503
H        16.64620066032618    6.49372323065811    2.62055344938165
H        18.36896578463906    6.24709178538827    2.95741171789952
H        17.02269434665843    4.88752514221950    0.97207143682288
H        19.18122114772084    5.01723818973319    0.02047087637851
H        21.44622212458217    4.08972456604936   -0.21091864620034
H        22.30014948235351    2.48023817216686    1.45522853466464
H        20.86867872534577    1.80723784110368    3.34944558416766
H        18.60647111704576    2.72930309943479    3.57734921053569
Cl       13.71087676341423    5.37915641761907    4.54889496531622
C        11.71138775043317    3.63119562365662    3.34783729171303
C        12.31579451847636    2.37652756256569    3.56634725169552
C        12.83353251236346    1.94985413019315    2.31248526707909
C        12.59910268928739    2.95372098410430    1.34666420346140
C        11.89372610827022    3.98901054490144    1.99728134030066
C        10.75403354401184    4.56140170345195    4.03113281670699
H        12.24497089100402    1.77516668618848    4.46435826288939
H        13.22276799499953    0.96383838316556    2.09443527239775
H        12.81610973068331    2.88249671485322    0.28767004951656
C        11.12743087507066    5.22662588475684    1.65334867808744
C        10.72850073407711    5.76548564370815    3.04425613739143
C         9.38299647421315    3.94101240697234    4.17484167446055
H        11.09770164947143    4.88753944197376    5.01737198260916
H        10.24376378817275    4.96199206740521    1.06306661159038
H        11.70888365288142    5.95575253839189    1.08563215369245
H        11.47409063910896    6.49371570989460    3.36892861710911
H         9.75129751597021    6.24712046001927    3.03212379110415
C         8.56939808507993    4.31259300300061    5.23804229450013
C         8.89331004017591    3.03442441256295    3.24258238500005
C         7.29451123638569    3.79157603650902    5.36833742433118
H         8.93948122945211    5.01734858788634    5.96928044526422
C         7.61868830215568    2.51198016339339    3.37282652421960
H         9.51344353206900    2.72925376491038    2.41236000008141
C         6.81493389669867    2.88886789308383    4.43484151893933
H         6.67458658372096    4.08977143963245    6.20129325776599
H         7.25133338372215    1.80710118304859    2.64091362540395
H         5.82031081121931    2.48011481920741    4.53546482221356

