71
CSD_code = KEDLUA | q = 0 | S = 0 | Stoichiometry = C28H36ClN2O2PPd | MND = 4
Pd        0.62405667517666    9.28718661067123    9.55968573829321
P         1.42761283478819   10.13006398546959   11.50035008024742
C         0.26596339167967   11.07573543030902   12.57304564495988
C        -0.76591376876517   10.14644459333046   13.20552413118753
C        -1.79208159233015   10.91353516133703   14.03653787146506
C        -2.89032011172076    9.99681792309697   14.56118621320379
C         2.39058986586355    9.06104031777071   12.64838970997362
C         2.99157760754837    9.77765022779924   13.85419900116776
C         3.86919718913779    8.84510843372085   14.69321891836200
C         5.15526542575921    8.43610421374826   13.98513061518444
C         2.63261148990389   11.41693245648277   10.95184180534892
C         2.13065814285115   12.04436596315130    9.64788590537843
C         3.09653913998572   13.09059514104387    9.09680823075087
C         2.61284760678872   13.64642355646211    7.76321177647505
Cl        2.62836203066368    8.29998384131404    9.44600141353207
N        -0.02232984123262    8.57025808281277    7.70754535370521
C        -1.31783316432328    8.29493286266586    7.52511375956391
C        -1.53935345126961    7.55937340705517    6.23050620967480
C        -0.20575741066667    7.50279615170694    5.65901202851859
C         0.26621836939791    6.99898393375758    4.45807788919421
C         1.60944553652330    7.15878752045344    4.16225827909018
C         2.45134506933284    7.82485126287396    5.04609358412331
C         1.99498195783810    8.33145216611354    6.25356985324446
C         0.66007086474651    8.14404148472637    6.57596773623670
O        -2.61330116038619    7.15520943791890    5.81581552515888
N        -3.68435991759559    8.37872182147701    8.10978184228060
C        -2.36255565605003    8.69590314189927    8.33890585363095
C        -2.28400225629730    9.58373649504843    9.46986447248187
C        -3.65229692562125    9.79234848809478    9.87854885080174
C        -4.22337427720049   10.54246604722713   10.90265350902339
C        -5.59272887886143   10.51082362832156   11.05588588068783
C        -6.39207121538776    9.74776724351096   10.20183940329098
C        -5.84989010817437    8.99936689167344    9.17610624506971
C        -4.47052828893943    9.02285988999457    9.01424348074779
O        -1.24475052657712   10.08654095961414    9.98134165042579
H        -0.24204352843410   11.79791320503209   11.92828615911284
H         0.82664676513905   11.62462722116608   13.33445652270956
H        -1.27675531129742    9.60169181111909   12.40621234416832
H        -0.26756322258711    9.41274140216893   13.84391071458743
H        -2.23766016549795   11.70075301382315   13.42401815660929
H        -1.28859615760952   11.39925432475072   14.87656350211738
H        -3.60757170081834   10.55854489748624   15.15493621981017
H        -2.46728007981174    9.21309681688283   15.18582863801309
H        -3.42054883218958    9.52748075206244   13.73517047546347
H         3.17499514892828    8.61738176304856   12.03129701885695
H         1.73385606178958    8.24778720399729   12.97432523852949
H         3.59508581580897   10.62290598348824   13.51822572848084
H         2.19256187197919   10.16343303373495   14.49038286871786
H         3.29836966661197    7.95189835264317   14.95593819896562
H         4.12678323381657    9.35767920492627   15.62324005789758
H         5.77578483519566    7.84119860760540   14.65094648452216
H         5.72098122026468    9.31558659294620   13.68549141408716
H         4.94712081926583    7.84274708735035   13.09921973240676
H         3.59067660987027   10.92001224035333   10.77528817294955
H         2.75938277272766   12.18188584551682   11.72298826886821
H         1.15094798690032   12.50591289855544    9.81591774996706
H         2.00547021701621   11.24114093773771    8.89163285773781
H         3.20055093612260   13.90612047780017    9.81699704277491
H         4.07997367558963   12.63482520760650    8.96444933802911
H         3.31135517270528   14.38561394044741    7.37906417175638
H         1.63974099025038   14.11925884179320    7.87633964192623
H         2.52075053892785   12.84654138078339    7.03184198873124
H        -0.40892398833524    6.50364182097784    3.77665880397311
H         2.00523355785033    6.77558336921136    3.23385149591254
H         3.49143966287292    7.95586081462440    4.78543701939308
H         2.66029154164666    8.85191500669994    6.92629219127087
H        -3.96927724344051    7.80841647390277    7.32646129963090
H        -3.59756755104726   11.13351127675539   11.55256763164368
H        -6.05929730764511   11.08244669583411   11.84386332770646
H        -7.46208425800370    9.74508412105880   10.34857204727103
H        -6.47362440129386    8.41359860348714    8.51847901295206

