92
CSD_code = KEDMAI | q = 1 | S = 0 | Stoichiometry = C38H48ClFeN4(1+) | MND = 5
Fe        4.56886185681399   14.10944788273544    4.73955665038380
Cl        2.85222907041700   14.70391101797885    5.71611396193653
N         5.74337618089838   15.02750313648278    5.99043928663558
C         6.86819146707076   15.52159239503889    5.42036595099273
C         7.85928687163646   16.15365970590934    6.17719088716368
H         8.73353780665725   16.55459687378218    5.69061957469567
C         7.69779193746580   16.25741957281803    7.54303810658370
H         8.44917373360343   16.73702419537326    8.15014811543127
C         6.54390904863498   15.73610916189281    8.12022311570359
H         6.37320407541302   15.80404888272674    9.18143810186329
C         5.60027564547153   15.13973669717296    7.30790156755916
H         4.68238701353887   14.74948272811465    7.71623938321476
C         6.87850258970566   15.37988075739848    3.98713985901562
C         7.90641306341732   16.06814585566291    3.14927237657759
H         7.72992953314756   15.88130754744815    2.09294818453910
H         8.89919107666052   15.70472849395130    3.41430637628501
H         7.88948772836601   17.14259039356811    3.32613160708761
N         5.90250185275082   14.65066428340562    3.51681519800516
C         5.55411776417942   14.70927131671909    2.15382562314612
C         4.91264705101277   15.87424310022515    1.68724361362550
C         4.46813981544130   15.89483967385424    0.37214501739351
H         3.96802758612658   16.77364052550293   -0.00258083032789
C         4.65992217359012   14.81548195162667   -0.46786663272414
H         4.31517096644186   14.85882347221525   -1.48910138625933
C         5.30402470198774   13.68430467501547   -0.00256360251762
H         5.46266690539975   12.85451014477710   -0.67082127606516
C         5.74983019203392   13.60778611835511    1.30781450345076
C         4.67364926127858   17.08733971382924    2.56076923240449
H         5.15670739391682   16.94484730074598    3.53493917005254
C         5.27029802760239   18.34237513939108    1.91442769394331
H         6.29751679700538   18.17188867215127    1.60067899496713
H         5.25659478485857   19.16650054580330    2.62349553092543
H         4.69491972722387   18.64124681754718    1.04293931020007
C         3.17895560212881   17.29307263218304    2.83093433664975
H         3.02665066903185   18.24282244316996    3.33789669337834
H         2.79159506040883   16.50684310581998    3.47745630696044
H         2.60835935792659   17.30651149342330    1.90555072831128
C         6.50014888025165   12.39824977261649    1.80798672400829
H         6.32345971329511   12.32413164445740    2.88647248527726
C         6.04651221625737   11.09240012463102    1.15658357871803
H         4.96229326084120   11.01044308791184    1.15392423953315
H         6.45681008454342   10.24955877119244    1.70818315347646
H         6.40465825583104   11.01981531001585    0.13338650316883
C         7.99989072215201   12.59975231521643    1.56224767645300
H         8.18225710615029   12.79804920427953    0.50843396844913
H         8.54858195468129   11.70424130830083    1.84084407183838
H         8.38271242896196   13.43506151212297    2.14166696180765
N         3.54110279022083   13.06375782789638    3.49868687764305
C         3.63763115512106   11.72491307405592    3.68017341626971
C         2.92937410944518   10.82298503888890    2.88000071503553
H         3.02012506246007    9.76353271456965    3.05364404624289
C         2.11305668605613   11.30604477404714    1.87912597577553
H         1.55248183475736   10.63138321424599    1.25185129231091
C         2.02248574359511   12.68367750822488    1.70014567356995
H         1.38937390354988   13.10549926487477    0.93764150367196
C         2.74613561526577   13.51376770346121    2.53139838650783
H         2.68215393213853   14.58579053003546    2.42828368522590
C         4.48615242542420   11.36200731680769    4.78622138153068
C         4.64233948650332    9.92987736632906    5.18383230446372
H         5.34387801960769    9.83318349058819    6.00820917435805
H         5.00417387643678    9.34848266920538    4.33609960548181
H         3.68218727989587    9.51370451991723    5.48495956995673
N         5.07601597632251   12.36734809993059    5.37245616580880
C         5.74853354879636   12.19067399152857    6.60250166474878
C         4.99677519329514   12.00566480613545    7.78079475512531
C         5.67611953646215   11.96502522842875    8.99180117257407
H         5.11693146052583   11.82744461950625    9.90326931939562
C         7.04957717740199   12.07901034012216    9.05558180219925
H         7.55300605415941   12.04159046284372   10.00896960312269
C         7.78128707276695   12.20819170982037    7.89021073942649
H         8.85591207934557   12.25424828378001    7.94523278524882
C         7.15166842452367   12.26791945452606    6.65724566098112
C         3.49765964910538   11.80311563884307    7.79513863044696
H         3.10782627008460   11.87088194839308    6.77473235503735
C         3.17242716029166   10.41204660075415    8.35718541964031
H         3.35287839032151   10.38303060093106    9.42821358863629
H         3.77899599538722    9.63779417994267    7.89481052975765
H         2.12407187380564   10.18034334655492    8.18674935484918
C         2.77348855272124   12.86167955206056    8.63247553186600
H         1.72898256556240   12.58014083849788    8.73962708438819
H         2.80163189048691   13.83136810248117    8.14520107649222
H         3.20569619498911   12.94975233080590    9.62528989361353
C         7.96255078356900   12.31492372192994    5.38427844178969
H         7.37043547169273   12.84608234499306    4.63321550266259
C         9.30493845246111   13.02964490607115    5.53966576917415
H         9.19134055215829   13.97279313989681    6.06809967503386
H         9.72621879976691   13.22831195136305    4.55665033445241
H        10.01603128272287   12.41052781653014    6.07981011082236
C         8.21249792776561   10.88279500186310    4.89501360788522
H         8.66844375610984   10.29206524440529    5.68637217003017
H         8.88828288069817   10.89233880781032    4.04419315376225
H         7.28665409401380   10.40233844154568    4.59433979906442

