68
CSD_code = KEDTIZ | q = 0 | S = 0 | Stoichiometry = C37H24N4O2Pd | MND = 4
Pd        3.32328070831720    2.67418105524175    5.13156118943538
C         2.13062269231164    1.68130730738347   10.51325307395685
O         5.52779287071440   -0.12475286271639    7.16194404975911
C        -0.40522276657716    8.47327385533730    1.25230921281083
O         3.97147273119171    3.12461255455467    1.11575921013285
N         3.88726991046474    1.42919697856535    6.69660300060097
C         0.37535677662284    8.28389059879819    2.39098049184502
H         0.42569096749531    9.07076262140069    3.13195976226068
C        -0.46612809399170    7.43486951727063    0.27087342596633
C        -1.89515580234075    9.82172352500121   -0.09192701089964
H        -2.45349513474033   10.73241679790095   -0.25364029607617
N         4.59825379976401    1.62090058828347    4.24214517201835
C         6.23431443077123   -0.08336177876880    4.30233119257038
H         6.78874718165822   -0.79721602001107    4.89088815859789
C         4.12718291019967    1.52866246243405    9.14665097246179
H         5.20004129210729    1.49775736786325    9.04277734992315
C        -1.95590032138248    8.79769565616589   -1.06072363150498
H        -2.55989300154863    8.94596266973759   -1.94415470027962
C         5.66896208908431    0.99223352480613    2.23141724064630
H         5.77244938729644    1.13729838105463    1.16764728525715
C         1.51483411522886    1.82661759163937   11.75127190496733
H         2.12704011220166    1.90003934280564   12.63963352146286
C        -2.66780536036739    1.98179268634791   12.07085871723565
H        -3.74276807930297    2.02240929698859   12.16991785454751
C         0.25335587857172    6.26060725805790    0.47604562496078
H         0.20952142083674    5.47716417655822   -0.26741687642040
C         3.54218474028360    1.63264840841075   10.36790198278869
H         4.14904407586232    1.69099098436802   11.26014800417464
C         1.09281859078744    7.11115870215627    2.59487198826406
C         1.03193925572810    6.06955693902114    1.61521775945350
C         0.12795107799422    1.88039627387061   11.87755345981403
C         1.90211191156932    6.91051985022265    3.74536752784389
H         1.97107552966232    7.70999344762239    4.47043477851451
C         3.92094036033708    2.88010585620905    2.31168249914983
C         1.32033463696786    1.57844587363469    9.33733148223415
C         5.29659833664356    0.72311369914784    4.93561313571370
C        -1.86742857619079    2.08149497630555   13.22859487524316
H        -2.34613040342516    2.19572306093068   14.19004921343268
C        -1.26250452617210    7.63968865428287   -0.88476392244152
H        -1.30454328819589    6.85260602054432   -1.62422298327439
C         3.32778426270484    1.45502638669845    7.97277691658042
C         6.41651243306485    0.05682967791743    2.93332356583684
H         7.13584977281335   -0.56037462744748    2.41641694943287
N         2.00558405361273    3.70769384416548    6.07671306357441
N         3.22653073563210    3.54328653282054    3.26114612453862
C        -0.06793705806272    1.62600471884579    9.46409266214681
H        -0.68174686835122    1.53138256256502    8.57721124569191
C         4.94036020098882    0.63546532112580    6.40721999960530
C         4.75593595047834    1.77484987233154    2.92800992487584
C         1.95748949122256    1.44878685374581    8.08471620931677
H         1.35404564465279    1.34243110398002    7.18585832288636
C        -2.09360894004826    1.83425915826268   10.84568520891004
H        -2.70282753800488    1.75369533401551    9.95603781003454
C        -1.14189098257793    9.66375615273247    1.03107694811367
H        -1.09070467565549   10.44552900364406    1.77614208062687
C         1.75293966782824    4.87126913998967    1.83105140326903
H         1.70636272795283    4.09142564065138    1.08763110342017
C        -0.68342816755196    1.77669358465360   10.70404907522026
C         1.26148345453269    4.18662791585916    6.81227502336934
C         2.58698086848991    5.75329348969157    3.92140400342167
H         3.23961112098475    5.60308097691267    4.78250013310972
C         2.50603892022932    4.69993591299535    2.96363554099189
C         0.32811567778907    4.77715643748510    7.71505850471052
H         0.07817503086366    4.05462227447881    8.49545816603213
H        -0.57551867654867    5.06418615252259    7.17738702244784
H         0.77005463732641    5.66159099565648    8.17352918575266
C        -0.51013609225487    2.03231149654347   13.13404494965916
H         0.10823191145277    2.10659618772477   14.01730315927420

