69
CSD_code = KEFCOP | q = 0 | S = 0 | Stoichiometry = C36H28As2PdS2 | MND = 4
Pd        4.86323098227266   12.76771852704463    0.00034948989988
As        4.70253105931667   12.05441489507315    2.18240208640165
S         2.85574833313101   11.67079701155361   -0.38473222204192
C         2.20871009009616   11.16963201820778    1.15965574005718
C         2.91468764645500   11.31892568467332    2.36244656469863
C         2.35805123709377   10.88303785233911    3.55686277908002
H         2.92422814422558   11.00480600248106    4.47598156611147
C         1.09780242124507   10.31081867753393    3.57366869098997
H         0.66414366366987    9.97962171010487    4.50535267689232
C         0.39753187068402   10.16394410554919    2.38396322185263
H        -0.58661031320154    9.71833181241192    2.39124594257843
C         0.94292489852878   10.58191511129604    1.18811754674165
H         0.40189655202296   10.46384439968725    0.26074846391488
C         5.12788124555947   12.83891762814411    3.89989124049507
C         6.41563211512196   12.75031971564992    4.41824988687858
H         7.16823979183100   12.18625444591904    3.87606274517221
C         6.72881470377846   13.38372116641796    5.60795729432343
H         7.72869952079833   13.31055166816779    6.01046519842786
C         5.76377985081658   14.11658770847798    6.27956745471789
H         6.01031782315993   14.60918439524816    7.20854861599618
C         4.48569349062947   14.22878048447072    5.75616005815432
H         3.73800762236662   14.81123470204951    6.27492137422379
C         4.16958676562633   13.59960001125098    4.56522849623545
H         3.17426156230905   13.68931920968859    4.13588776965527
C         5.74562317871873   10.41653151296627    2.10801232069066
C         5.91343072689781    9.57961088010486    3.20745427638368
H         5.48956835726273    9.86928836335642    4.16469155772015
C         6.61656431813134    8.39578352242126    3.07547632634701
H         6.74898445208086    7.74856521492397    3.93063254498611
C         7.14863254638420    8.03763964594929    1.84659581456221
H         7.69718481351811    7.11240154552999    1.74708198108592
C         6.97877301266093    8.86118802150866    0.74618391540026
H         7.39315515321198    8.57805782872847   -0.21073624274276
C         6.27884693539862   10.04869794461099    0.87433607195456
H         6.14814444236377   10.70813240745606   -0.00443013201760
As        5.02350426182805   13.48150273966120   -2.18227461920649
S         6.86988948608048   13.86557063455482    0.38467305524326
C         7.51723747952857   14.36656126342100   -1.15969138381529
C         6.81128152903840   14.21717780390470   -2.36247942289178
C         7.36786568352742   14.65317454620450   -3.55686899381407
H         6.80166426149591   14.53137338291038   -4.47596930367510
C         8.62808942701503   15.22547866822960   -3.57365017853157
H         9.06171399768876   15.55685434188377   -4.50528390505695
C         9.32841769073514   15.37217987307449   -2.38397256535845
H        10.31259234429430   15.81771555236204   -2.39127483745279
C         8.78305526783784   14.95414603615493   -1.18811414516486
H         9.32416042820104   15.07212163998394   -0.26077966702351
C         4.59824022138488   12.69711850044397   -3.89990583210132
C         3.31046179873253   12.78559825482595   -4.41823908948183
H         2.55783403201773   13.34962470407658   -3.87604261716544
C         2.99727156164869   12.15213215976724   -5.60791813587999
H         1.99738252900769   12.22528014618184   -6.01042204961411
C         3.96233820473824   11.41933983881591   -6.27955394807959
H         3.71584266989155   10.92679246625987   -7.20857444619481
C         5.24042899197056   11.30719070218164   -5.75615342166607
H         5.98814559268378   10.72482183335727   -6.27496653125083
C         5.55653287965565   11.93640094284258   -4.56522731092171
H         6.55185385128067   11.84666377853100   -4.13587998904381
C         3.98036349853104   15.11937566470538   -2.10800905396605
C         3.81255446823213   15.95627467042937   -3.20747626426229
H         4.23646878746931   15.66655125692834   -4.16467992595929
C         3.10935636530237   17.14006760863603   -3.07555095603697
H         2.97689446017463   17.78724809929128   -3.93072734678232
C         2.57724358612073   17.49820974724651   -1.84669091365781
H         2.02859788075883   18.42339564931039   -1.74722651493391
C         2.74717587984690   16.67474806399511   -0.74623586863134
H         2.33277825610845   16.95787794491787    0.21067495849302
C         3.44715945868976   15.48727293022967   -0.87433866971591
H         3.57790415432803   14.82798272369043    0.00452877777093

