69
CSD_code = KEFCUV | q = 0 | S = 0 | Stoichiometry = C36H28As2PtS2 | MND = 4
Pt        3.52420267181092    1.20338515475875   11.72678544984113
As        3.40758954885254    0.15492829194931    9.60948977510985
As        3.56911923351636   -0.73563199273442   13.07897289031182
S         3.53375436165170    3.22830018093382   10.57862699984634
S         3.62093946702332    2.42832148922347   13.70376566969788
C         3.20448578781970    1.60281169909987    8.34757259671016
C         3.27704326676280    2.89637113085521    8.88133428283995
C         3.14136042819651    3.98266476616199    8.01227299595241
H         3.20123973692077    4.98221046584755    8.41611321946323
C         2.93132059502883    3.77823644463338    6.66490735320958
H         2.82660710732648    4.63003521539860    6.00873832360563
C         2.85260589865968    2.49316041250499    6.14290271901075
H         2.68520897751352    2.34278412152631    5.08689780324245
C         2.99158725391890    1.40816269833818    6.99013324054862
H         2.93728258627469    0.39290700081192    6.60654305731210
C         4.82112849172094   -0.94045483824052    8.85686506038399
C         5.85799555311595   -0.34289716471189    8.14740368552205
H         5.80787777153072    0.72061315106275    7.93198109921295
C         6.93787844710441   -1.09760869790018    7.72347568743725
H         7.73801253449022   -0.62951074006440    7.16856995918126
C         6.99662650935228   -2.45039130737782    8.01595580641395
H         7.84144794335010   -3.03773059398918    7.68807431672260
C         5.97448955410559   -3.05006630971406    8.73408237895409
H         6.02310658483236   -4.10337541903330    8.96956657661851
C         4.89555022239963   -2.29654192652145    9.15753375402365
H         4.09443206268722   -2.75775757197014    9.72806733908499
C         1.80510934475455   -0.91462558063711    9.39200499547352
C         0.78517881414316   -0.69438564037389   10.31220138686848
H         0.93573698153813    0.05372882232875   11.09450261031220
C        -0.39354183804691   -1.41291728812476   10.23927322742341
H        -1.17950470756730   -1.24085143131352   10.95979233613524
C        -0.55698646831267   -2.36119399378931    9.24233166392018
H        -1.47288527611955   -2.93054088099668    9.18500477629090
C         0.45117627969206   -2.58111801032333    8.31777511725167
H         0.31800358150925   -3.31874528151152    7.53929018563848
C         1.63050278379146   -1.85948291051171    8.38878910807274
H         2.42462648545439   -2.03364381739441    7.66985422690392
C         3.83131542337688   -0.08323679158385   14.87753294784859
C         3.84083367653430    1.30982367325477   15.02928838666013
C         4.03201231548325    1.83752577307553   16.30943015827019
H         4.03604563319267    2.90995642944534   16.43456285584359
C         4.21566919071052    1.00128750902793   17.39023200723999
H         4.36439796553840    1.42728909316399   18.37180303693221
C         4.21254479791052   -0.37902771298185   17.23212522889161
H         4.36017243959280   -1.02588694782642   18.08390990282722
C         4.01883288158817   -0.91599847038730   15.97183968587794
H         4.00957977644110   -1.99222171501016   15.82108660661513
C         2.13038744029503   -2.02823677273505   13.23070038133239
C         1.11980609626274   -1.83885772732095   14.16779946814305
H         1.20481086536089   -1.02380113595669   14.88081354026820
C         0.02174641983021   -2.68110382369773   14.18773771951344
H        -0.75774483205913   -2.53307864234454   14.92093243942573
C        -0.08176993115860   -3.70861033314861   13.26442624066393
H        -0.94101278960306   -4.36245117263929   13.27808736521624
C         0.91364703586099   -3.89472524557324   12.31861304832717
H         0.82961533624967   -4.69029541511615   11.59247904329755
C         2.01075810044887   -3.05403823171754   12.29873623872890
H         2.79100284044052   -3.18706353263987   11.55472828941635
C         5.14484550232675   -1.80626936009976   12.71895155549727
C         5.29758002726210   -3.12922920655083   13.11364944233640
H         4.50039881397013   -3.62310056519744   13.65984214605203
C         6.45984950043856   -3.81316932608776   12.80025285306379
H         6.57583272031855   -4.84386269632096   13.10374273690834
C         7.47290885607229   -3.18073227833757   12.09812495473495
H         8.37486872563408   -3.72098968833144   11.85137251918495
C         7.33238079479527   -1.85729990338264   11.71243348818471
H         8.12232143968317   -1.36354171409134   11.16598758433551
C         6.17062299937052   -1.17538042598461   12.02202924551935
H         6.03793136110802   -0.13262329101190   11.72119720847597

