69
CSD_code = KEFCEF | q = 0 | S = 0 | Stoichiometry = C36H28As2NiS2 | MND = 4
As        4.73102787848159   12.22436772567615    2.11141209604724
Ni        4.87144534570970   12.89837312098521   -0.00132486479422
S         2.97513867362844   11.82480286791991   -0.40708298198983
C         2.26788645587787   11.32409430478004    1.11598160052968
C         2.94812550388639   11.48928232277112    2.32902310091425
C         2.37411265678635   11.06754634379498    3.51728681735257
H         2.91929648587669   11.20167476553957    4.44657088414846
C         1.11567568002343   10.48799326579539    3.51237227366907
H         0.66452031666615   10.16376964214207    4.43835924458038
C         0.44074961943942   10.32394299329704    2.31125287464608
H        -0.54117556858378    9.87329044565973    2.30506856723161
C         1.00651187044997   10.73148727195339    1.11927492748956
H         0.48305240681419   10.60033071214474    0.18388147627644
C         5.18850396740269   13.01055781113853    3.81574623824581
C         6.48061993649632   12.90537217217700    4.31832636180717
H         7.22054745533467   12.33714551836708    3.76412989986756
C         6.81416115579172   13.52676826616545    5.50873671284406
H         7.81775060239414   13.44018696076886    5.89940031254501
C         5.86446200895648   14.26484864249333    6.19640967107998
H         6.12667669846023   14.74860684932232    7.12582531886469
C         4.58145392652469   14.39276555879318    5.68884760308254
H         3.84543016840953   14.97854666297684    6.22067814102396
C         4.24560513298891   13.77484475535277    4.49740049346803
H         3.24618665138386   13.87696543746573    4.08208683284541
C         5.76077040815844   10.58344572835207    2.04455519353866
C         5.93120258168200    9.74062113382042    3.13681889696824
H         5.51175886623686   10.01997617430773    4.09849906462960
C         6.63456648131516    8.55852739573392    2.98882580575452
H         6.77228391068779    7.90316457229377    3.83701563032332
C         7.16098163397614    8.21131085442270    1.75398491297900
H         7.70983569408135    7.28724076314362    1.64522421085459
C         6.98569911316966    9.04265407042279    0.65985759440906
H         7.39385692602207    8.76775362781686   -0.30203971371729
C         6.28662568460933   10.22669064985988    0.80783849840258
H         6.14011067779135   10.90307543977553   -0.04937272238521
As        5.01337950456009   13.57337705367918   -2.11431450162057
S         6.76731893916029   13.97166176518644    0.40594111242830
C         7.47627990026023   14.47199938554403   -1.11621572579173
C         6.79692589245788   14.30854272607282   -2.33001851481087
C         7.37271543403202   14.73103541685134   -3.51718684484879
H         6.82872306486606   14.59777561743011   -4.44729751719986
C         8.63163053322102   15.30960600191464   -3.51031191077401
H         9.08425468034415   15.63412069923587   -4.43548237463939
C         9.30533484604793   15.47238521813809   -2.30833204141190
H        10.28767142117899   15.92209057678700   -2.30048954761269
C         8.73785729707496   15.06424064094134   -1.11743375208934
H         9.26008765975408   15.19429668943988   -0.18118877256415
C         4.55579574603020   12.78841904728069   -3.81944142360467
C         3.26325201743927   12.89354090129776   -4.32107479025733
H         2.52443301595020   13.46392839293083   -3.76765040239779
C         2.92765485878185   12.26916083662282   -5.50935157785193
H         1.92380824353213   12.35603700994044   -5.89935621469174
C         3.87567091768077   11.52788579389330   -6.19588000760723
H         3.61176751466361   11.04158944647712   -7.12351088221001
C         5.15913847592535   11.40021518376270   -5.68943534171754
H         5.89388281623347   10.81212267271922   -6.22045576824887
C         5.49709798120767   12.02129892357400   -4.50017683084698
H         6.49688226529921   11.91908602028166   -4.08574444432190
C         3.98407320617050   15.21485466926936   -2.04639367739710
C         3.81156132366976   16.05846320129845   -3.13777608372690
H         4.22989014068103   15.78024068875211   -4.10030458557730
C         3.10786069739832   17.24017803041373   -2.98780496926066
H         2.96872012770532   17.89626468094660   -3.83523633095835
C         2.58334819571234   17.58642019481454   -1.75189249411513
H         2.03424589890032   18.51018525632966   -1.64163004966827
C         2.76063295937478   16.75432349679149   -0.65864544875379
H         2.35364291317663   17.02820070262384    0.30407123913115
C         3.45977283670988   15.57061211677100   -0.80867387708679
H         3.60723166786477   14.89341611455478    0.04782337857223

