30
CSD_code = KEFJOV | q = 0 | S = 0 | Stoichiometry = C16H9O4Rh | MND = 4
Rh       -5.70599583130607    5.98256029159340   15.09341888508019
O        -5.78067372913780    6.84464604452224   13.32427540093827
O        -4.22823429959258    7.21311530247031   15.51934752733441
C        -5.61499366255437    5.19849076474564   16.75891967016819
C        -4.02825822630397    8.47537215489596   13.48868943871737
C        -3.32711558761497    9.50999827544767   12.81918234465452
C        -3.66685800945015    8.12513139923034   14.82734664281218
C        -7.08589751587431    4.83846855858192   14.66464141844839
C        -3.66750183179595    9.87520098600054   11.49411292542064
O        -7.93624372920258    4.11553284473180   14.42134112293527
C        -5.09015616888438    7.79020279950183   12.81914996862701
C        -4.73116528029966    9.18258544749966   10.84918270934234
H        -4.98892018235230    9.46651297009996    9.83841105396707
C        -2.96217322723856   10.89515944179614   10.85394057988929
H        -3.23647428456417   11.16028387823689    9.84227968775512
C        -2.27073184367735   10.20154102204241   13.46099374865802
C        -5.40612927695985    8.19369785720277   11.47630459192333
H        -6.21321331681739    7.66330765097892   10.99299796568143
C        -2.59120722908913    8.85308951226249   15.44338122714719
H        -2.33807230715528    8.57098483538404   16.45464210453155
C        -1.92654806365934   11.57022126240506   11.48248297383064
O        -5.58094199849127    4.69929480426970   17.78593838620719
C        -1.92995377192347    9.83712612342304   14.79469270662760
H        -1.12391289954156   10.36877437658929   15.28085884780645
C        -1.59335727808316   11.21419698527698   12.78182916680901
H        -0.78923769502321   11.73165243797118   13.28647485353627
C        -1.16513271881857   12.64633438766693   10.77026327922423
H        -0.24859534715117   12.23464296917084   10.34645423723977
H        -0.88763566731317   13.44293836043699   11.45692908759156
H        -1.75346902012429   13.06783625556487    9.95911744709551

