103
CSD_code = KEFKEN | q = 0 | S = 0 | Stoichiometry = C49H50AuClN2 | MND = 2
Au        1.87726881821189   10.65449368013641    8.72967894592377
Cl       -0.37437298238617   10.65524365557098    8.72821032612711
N         4.64887505818303    9.79260313160118    9.38784334217382
C         3.88378215631110   10.65473669661179    8.72860793047825
C         6.06889630078552    9.97371064017271    9.10191184768583
C         6.62792702152296    8.86323433369229    8.24588543727435
C         5.90088138759011    8.36255411184084    7.17352981010458
C         6.43418041381879    7.37204906793555    6.36956242276164
C         7.69474077968609    6.86509751499959    6.63400136969140
C         8.42318112161463    7.35918348762635    7.70210714068154
C         7.89516757537761    8.35764442349222    8.50009443910570
C         4.10980014758622    8.75556091221315   10.25470677893643
C         3.83478904094199    9.25921428113476   11.66158460989637
C         2.79612175623755    8.68271178962982   12.39996699038775
C         2.49513823609107    9.18704568888494   13.66844819953116
C         3.25434988773446   10.22532178586747   14.19171524493404
C         4.30176823652326   10.76873376850685   13.47563355541946
C         4.58567973404683   10.28768977529439   12.21198871966618
C         2.00473125601824    7.54676364788962   11.81979997298019
C         1.35583997937294    8.64125921169246   14.47796773195046
C         5.00318689624657    7.52955604275465   10.25719293014883
C         4.79867948545576    6.45960799769436    9.38066645756631
C         5.68051410990961    5.37212402043295    9.41977226864410
C         6.74077098857545    5.36978251120920   10.31294126532810
C         6.93092300702319    6.42210735178335   11.18716665116465
C         6.06055571746205    7.49208561380369   11.15893963927649
C         3.65577527742000    6.40585852637063    8.40805788654264
C         5.49723796036985    4.20458873871409    8.49811783193983
H         6.65104380852741   10.03638766742950   10.02653651451853
H         4.90698810828843    8.73576582078767    6.97493254345110
H         5.86082986776180    6.99515082916741    5.53499204371979
H         8.10826333692826    6.08617706958674    6.01075034345408
H         9.40570058570479    6.96584659382764    7.91545168847067
H         8.46701126400896    8.74347506211641    9.33177382637133
H         3.13480072484338    8.50625424908124    9.82848441084784
H         3.01973318418567   10.61164701543814   15.17315764227999
H         4.89417433677928   11.56935812018321   13.89381297779303
H         5.40011368557009   10.72687218394363   11.65807113122075
H         2.66298598999952    6.82615775864500   11.33851157749513
H         1.29771584210831    7.92216882411227   11.07801581291732
H         1.43934336399454    7.02744282946807   12.58564930177094
H         1.53334649652609    7.60113900512348   14.75117348127418
H         0.42560255974587    8.69346059282023   13.91491989570595
H         1.23511982099786    9.21514388765803   15.39340180763820
H         7.41887398190449    4.52878242961088   10.32909277574465
H         7.75049335860147    6.40692811234616   11.88989323815956
H         6.19540578951503    8.30817405951868   11.85274822725129
H         2.90260541855267    5.69948627651208    8.76103512447197
H         4.00381105742919    6.05813959405590    7.43841550415995
H         3.17374405630532    7.36667909105996    8.26195531998208
H         4.49420874683437    3.79071175555370    8.58657104730302
H         6.21598875547468    3.42238068938403    8.72802212997624
H         5.64491451514580    4.50982056997996    7.46214924063983
N         4.64884889305479   11.51700063654218    8.06946757372371
C         6.06887573078634   11.33594709576725    8.35545369601219
C         6.62789369578831   12.44639614659365    9.21153491866474
C         5.90081497490602   12.94707144831064   10.28387187263587
C         6.43407801513310   13.93758989755044   11.08784882608883
C         7.69464785934302   14.44454091179202   10.82345701914375
C         8.42312903803603   13.95044924646328    9.75538311060913
C         7.89514455442149   12.95198809371803    8.95737566554173
C         4.10982950778592   12.55410076216371    7.20265529706189
C         3.83480408395587   12.05039283318030    5.79580865350066
C         2.79609509297777   12.62683358383724    5.05744863551471
C         2.49510015399144   12.12246224457687    3.78898635341960
C         3.25433417805063   11.08419974255937    3.26572532669598
C         4.30177981733810   10.54082979126416    3.98179854460004
C         4.58569995577030   11.02191148816627    5.24542646107569
C         2.00468146914090   13.76275590336575    5.63762405759230
C         1.35576794289653   12.66819349318093    2.97947650927635
C         5.00323847472084   13.78007932442700    7.20016854885278
C         4.79874094784156   14.85004472892746    8.07667224883734
C         5.68060244724872   15.93750446721289    8.03755245486460
C         6.74087253622761   15.93979905173178    7.14439921500898
C         6.93101029271695   14.88745254179396    6.27019770426450
C         6.06061497724223   13.81750147843907    6.29843320966201
C         3.65581892464367   14.90384648166810    9.04925916784106
C         5.49733085619674   17.10506966023113    8.95916617512821
H         6.65106438826285   11.27329163202292    7.43085633805795
H         4.90691737875653   12.57385608633038   10.48243816688809
H         5.86069707000109   14.31448538101651   11.92240013562243
H         8.10814678854991   15.22346267426443   11.44672257110298
H         9.40565773635324   14.34378598916309    9.54207605959956
H         8.46702433451661   12.56615210743156    8.12572423734025
H         3.13484245248756   12.80341376817312    7.62889620125811
H         3.01971001862871   10.69784876966791    2.28429531142266
H         4.89420382168626    9.74021688711608    3.56362498867918
H         5.40015183979205   10.58276629886395    5.79934481868527
H         2.66292821584406   14.48339185309499    6.11887770854782
H         1.29770450810913   13.38733692302548    6.37943915640790
H         1.43925814477515   14.28204227261118    4.87177721174362
H         1.53324123988285   13.70830456811712    2.70621488494088
H         0.42554798220658   12.61599816160810    3.54255229483601
H         1.23503269130738   12.09426492887526    2.06407244290078
H         7.41899545355091   16.78078220645951    7.12823563088895
H         7.75059014523596   14.90259130489396    5.56748236727419
H         6.19545412070843   13.00139013264684    5.60465046787152
H         2.90268716020354   15.61024624592547    8.69626611974726
H         4.00384552157953   15.25156388597769   10.01890464180713
H         3.17374034953089   13.94305310496553    9.19536274485600
H         4.49431605102337   17.51897302695647    8.87067102983848
H         6.21611223244407   17.88724843756241    8.72925967955900
H         5.64496791089547   16.79985980480638    9.99514619158539

