67
CSD_code = KEFMUE | q = 0 | S = 0 | Stoichiometry = C30H30N4OSZn | MND = 4
Zn        1.83299735689642   11.58686543560019    3.01139685571371
N         1.12649055599019    9.80703426794499    2.09244229849780
N         2.16960303883153    8.99816473015349    1.85377917422943
N         3.06267977030731   11.86472374248263    1.36028000408841
N         3.53220252843541   10.68092472385147    0.94507991119296
O         2.97669833781252   10.52696736405455    3.98056730589162
S         0.17317450918903   13.10860686701172    3.37976530204576
C         2.70239655881585    6.57915534317782    1.48776691785404
H         2.13056596741400    5.65769836351198    1.42626828914665
H         3.44082643221534    6.47791433026106    2.28204086875190
H         3.22845616258425    6.72190133744822    0.54306661110717
C         1.77739598902427    7.70833437872669    1.76158839318539
C         0.40968542730286    7.70610601539042    1.94397051038367
H        -0.23897184363408    6.85452779066798    1.92962090016568
C         0.04438314611930    9.04272447856556    2.15210222245068
C        -1.30585556735250    9.60602301695386    2.39913952001340
H        -1.30759885089499   10.67380012634345    2.19617167023628
H        -1.58860483953384    9.45921794157887    3.44152347201052
H        -2.04347364409514    9.11205831630691    1.77066387291760
C         4.54141840028182    9.61256461105409   -1.08306328193516
H         3.79958656928807    8.81652452760430   -1.15007568195073
H         5.44092650006567    9.20644206296245   -0.62029864091046
H         4.79371536583274    9.93618707094842   -2.08883273712398
C         4.00579554588494   10.76797990869818   -0.31869590891180
C         3.84129974830859   12.08032768459886   -0.70832857218873
H         4.10981586482604   12.50942086135974   -1.65164900281033
C         3.24056500808772   12.73232359998585    0.37757245663053
C         2.84078378095968   14.15365484452290    0.50934527635686
H         2.05793271003146   14.25005201403765    1.25800171351600
H         2.48562120550500   14.53808086064323   -0.44344935459381
H         3.69512042321840   14.75161623060461    0.82555500932871
C         3.50150226869631    9.53509347536120    1.80965761646315
H         4.16082985581279    8.76578535952524    1.40034484521866
C         3.97002175095534    9.90876772459136    3.29395097330459
C         5.22268605093600   10.78007417208820    3.20863927650974
C         6.19399661450834   10.65690617461539    2.22216074808252
H         6.11347182617831    9.90550705059776    1.45002908404572
C         7.29268898593049   11.49885228770045    2.20767457569673
H         8.03469343304973   11.39243059053311    1.42893422323366
C         7.44201265089070   12.47143799004021    3.18017745436023
H         8.29943784130946   13.12806454670910    3.16252095620269
C         6.48652120664157   12.59259145761621    4.17385943949424
H         6.59496979804248   13.34412350267482    4.94183316963350
C         5.38850902896567   11.75314057744875    4.18555225970171
H         4.63304469407233   11.83963749578759    4.95114287803330
C         4.28889758901952    8.55730368466756    3.95068666965556
C         5.49888783830226    7.89982458335100    3.76995491016747
H         6.28689729535325    8.35623919965042    3.19023456933474
C         5.71443132369746    6.66151143989109    4.35047543176657
H         6.66199613869503    6.16249635795423    4.20692052225667
C         4.72531818900788    6.06410053205374    5.11341701291644
H         4.89730159329764    5.09686577462115    5.56232634092768
C         3.52083445195252    6.71900270890555    5.30471917537639
H         2.74594658065481    6.26530966510321    5.90491945554515
C         3.30659390384137    7.95734331682746    4.72779564363471
H         2.37845145960505    8.48569572426742    4.88031504948234
C        -0.74770539875671   12.29610950395193    4.63252733574673
C        -2.04520710081984   12.73462024263205    4.89057498971788
H        -2.44021248283855   13.56031814996140    4.31881137974423
C        -2.80678308865439   12.11643949823328    5.86222003969738
H        -3.81225440366674   12.46343607053618    6.05319045092743
C        -2.28987292904123   11.05567346182398    6.58925708608217
H        -2.88830873985911   10.57135606185484    7.34692639191685
C        -0.99679474831342   10.62486480900465    6.34079511946367
H        -0.58104094991436    9.80411343365894    6.90843022290308
C        -0.22623211114000   11.24024648276708    5.37234741519676
H         0.79063742591044   10.90979404619104    5.19286191224309

