72
CSD_code = KEFRUI | q = 0 | S = 0 | Stoichiometry = C32H36ClNbSi2 | MND = 13
Nb       10.49891192789081   16.11438893820593    8.46081530263694
Cl       12.69348087888575   16.61219023330470    9.22405818344525
Si       10.74444416832400   14.87487124637867   11.86724726294199
Si       11.02852540459907   19.86731093756666    7.62842484260562
C        10.04948500642670   14.06430467701367    8.08562925407867
C        11.32617991578458   14.24028629352162    7.79195374085640
C        12.42505429807847   13.59707188462369    7.29388523165769
C        13.45888602508425   13.10850290198491    6.87185433814728
C        14.62301316239993   12.48755571312585    6.38699250063911
C        15.40926943700398   11.70532140499540    7.23851039690554
C        16.55242379849037   11.09796941408254    6.75925145034058
C        16.92746354839424   11.25685085959131    5.43401288792101
C        16.15192727259936   12.03130362535437    4.58526295565248
C        15.00721411946567   12.64561395425116    5.05228268631761
C         9.16040070462622   12.93066767891233    8.00249748710820
C         9.66575295935274   11.62519271373817    8.01300591924930
C         8.81007028033260   10.54478067435631    7.93387645665361
C         7.44125159020954   10.74155876384937    7.83268194397539
C         6.92982549929254   12.02951188995363    7.80803618071437
C         7.77841554466894   13.11575903382233    7.89654997704744
C         9.86331429135238   16.01755840017862   10.62114059182626
C         8.49666173606141   15.78882398840556   10.18836878481311
C         7.84682148908004   17.00504458676061   10.08019278958482
C         8.75080412748122   18.03074042168454   10.43329821194031
C         9.96082304159418   17.45448478740497   10.76067023559021
C        10.51162854890000   18.12010419367525    7.12422586155707
C        11.26007852724151   17.27508564864634    6.25369648789430
C        10.41790435925203   16.29302732577240    5.72145110680483
C         9.13731410880827   16.46664526081438    6.28533656135602
C         9.18549635523206   17.59656825288258    7.13453993739191
C        11.84207267641646   20.07888868854387    9.34331535035146
C         9.45240242939455   20.94904072881326    7.55693649329571
C        12.26467889506872   20.46299553794367    6.29949296882375
C        11.54115237018937   13.36406313810615   11.00581964933744
C        12.09457356105090   15.86831766700681   12.78284147878002
C         9.42716134907925   14.26627836095361   13.11434638939131
H        15.11262529547392   11.58670515675446    8.27043344355741
H        17.15670987719410   10.49562968701655    7.42216990128878
H        17.82250032034787   10.77931671739749    5.06380492785061
H        16.44391870226632   12.15712371073109    3.55258667090662
H        14.39996999696660   13.25075907130028    4.39485647196696
H        10.73422160685012   11.47925192625353    8.08394431668875
H         9.21029175912275    9.54142617380339    7.94641796231845
H         6.77539867256044    9.89383139657809    7.76876440313213
H         5.86396071798367   12.18433618420586    7.72088953759629
H         7.38239542394302   14.12317929145360    7.86970407660278
H         8.03202733902901   14.81430895827489   10.13933138154841
H         6.81589970371779   17.15172202113878    9.79824808921102
H         8.51929643848842   19.08382891495371   10.45400350900981
H        10.82535766290946   17.96198794848068   11.16036177756093
H        12.29539367981845   17.42865706777352    5.98063306109905
H        10.69484571931038   15.53314407133038    5.00305873444733
H         8.24420513708288   15.92761056779300    5.99778531210465
H         8.31833389595117   18.10964711017951    7.53212467421845
H        12.51595637189732   19.25821093879005    9.57330514948518
H        11.10404043154339   20.14197229048805   10.13753160440228
H        12.42365420176563   20.99627337277924    9.36673645553408
H         8.97015808263481   20.88983951626131    6.58595563887728
H         9.70392159883448   21.98932837769074    7.73560556346704
H         8.72207491192306   20.65894387491365    8.30616093796773
H        11.88693188899298   20.30259597897136    5.29410940275819
H        13.21506589706747   19.94501393668347    6.38336541089835
H        12.46115499207057   21.52433415432355    6.41226010750966
H        10.80311237503945   12.77536542881731   10.46682701235334
H        12.01514480316558   12.71136544765609   11.73242481300879
H        12.30277077166113   13.68041894208715   10.29470235222081
H        11.67103186159015   16.67628576033853   13.37115783607590
H        12.80256697934484   16.29707887817008   12.07992894037801
H        12.64959709290558   15.22613029248482   13.45898714394338
H         8.88869244383541   15.09624062550170   13.56048408771705
H         9.89211944549326   13.70416171195393   13.91692808688130
H         8.69757049386243   13.61839467038137   12.63920930874752

