78
CSD_code = KEFTEV | q = 0 | S = 0 | Stoichiometry = C43H28ClN2O3Re | MND = 6
Re        7.57176491746405   -4.23756121766027  -14.08822893323669
Cl        6.91080810042503   -4.40458368983892  -16.36834687296316
O         8.21026802793221   -4.02355066289565  -11.07189362422956
O         9.58992602487648   -6.48729811173139  -14.72753812996809
O         9.36453513120328   -1.89812974777286  -15.01225389121696
N         5.96183091766013   -5.63968245440857  -13.84504042134152
N         5.83114500974052   -2.97745890207057  -14.00204894035503
C         7.99483269496072   -4.10374824526680  -12.19944374433743
C         8.90502612692648   -5.62135955058801  -14.43436513336660
C         8.76694188949734   -2.78406140007327  -14.60902955200758
C         4.78919890450304   -5.10096763988868  -13.94704704177570
C         4.71721529315320   -3.63602212539085  -14.03335432903005
C         3.30912106649381   -3.25901285472699  -14.06275826899762
C         2.58472622495307   -4.47528736659419  -13.99133761032222
C         3.42504368050553   -5.61481822965758  -13.92400646181978
C         2.84169333217031   -6.85345536144531  -13.79361795715245
H         3.42823499161378   -7.75599293642154  -13.71264791277449
C         1.43853506419444   -6.93684937288261  -13.76117921127665
H         0.99131682882733   -7.91572212485161  -13.66687008509341
C         0.62581616462034   -5.83261728079939  -13.84094818065876
H        -0.44826615577028   -5.94240564599281  -13.81211807090678
C         1.18867444242787   -4.54141898955382  -13.94718181719718
C         0.50152345150845   -3.30806764719138  -13.99023620625794
H        -0.57830699463147   -3.30133694057454  -13.96847392148711
C         1.20178947827905   -2.12796627164889  -14.04511390683323
H         0.66031823117183   -1.19341129393287  -14.06390759276774
C         2.60656676004551   -2.07683689617831  -14.07516068346933
H         3.10156849960665   -1.11811630812329  -14.10363811590890
C         6.15053162101029   -7.01940463672956  -13.89419551458913
C         6.95007947325100   -7.64069164377578  -12.93270552072707
H         7.37065561075266   -7.04558401351363  -12.13390303170363
C         7.17913427732413   -8.99506546137425  -13.00112592193082
H         7.78424395284999   -9.46662411083112  -12.24052542671527
C         6.65962142994510   -9.77521769315802  -14.04290600878590
C         5.89429838659596   -9.12956896920904  -15.01998616544528
H         5.49846252874262   -9.68734526054890  -15.85419124176402
C         5.63112752774930   -7.78035437786353  -14.94359428326069
H         5.06466499696031   -7.28834992712169  -15.72147485528315
C         6.94732010692869  -11.19370149656049  -14.05731466520026
H         7.54076714222344  -11.53293839738856  -13.21860405468143
C         6.56063834061423  -12.07895282150151  -14.98921443897576
H         5.98607299681440  -11.73869787384424  -15.84103347200893
C         6.85124550570857  -13.49981320449933  -14.99779885074212
C         7.47224473972723  -14.16483333751318  -13.93678672750218
H         7.75313283082619  -13.62054854019680  -13.04851403471137
C         7.72650703424848  -15.52013690958372  -14.00372938929379
H         8.20662705159718  -16.01623998678397  -13.17282847231147
C         7.36928972572380  -16.24732269030016  -15.12813437722272
H         7.57115820796465  -17.30707238795766  -15.17664395298606
C         6.74895311743860  -15.60581373914719  -16.18755710808698
H         6.46521525009686  -16.16551057802497  -17.06698542985839
C         6.49108628969066  -14.25104925948191  -16.12126139044807
H         6.00743792443764  -13.75764420061544  -16.95285297934460
C         5.88635717309895   -1.60124857571029  -14.21224918077745
C         6.62387819197053   -0.80068398149459  -13.33627429766266
H         7.09847432689246   -1.26115243838330  -12.48059009350686
C         6.73007380187195    0.55280705865565  -13.55479694677347
H         7.29610553899424    1.14759175184016  -12.85587153164446
C         6.13913334366421    1.15589465193606  -14.67220142605857
C         5.44150467052233    0.33210006548801  -15.56358100971631
H         5.00187082090332    0.76534227816241  -16.45084076561468
C         5.30065280553364   -1.01876310485605  -15.33730908595229
H         4.78477741674391   -1.64524793789178  -16.05096801672052
C         6.22675229964226    2.57293825667226  -14.95510722648981
H         5.78385130511470    2.86738757389610  -15.89742212464969
C         6.77686611892548    3.50720044292198  -14.16378987414809
H         7.20225373235221    3.21176440731855  -13.21352278257044
C         6.86150438621755    4.92921579240493  -14.43375629584631
C         7.40502947561409    5.76398289197499  -13.45164412308041
H         7.74747424336907    5.33082173068571  -12.52209655714044
C         7.50918995864110    7.12629480947395  -13.64922660090539
H         7.93168736089965    7.75162784498625  -12.87616491346586
C         7.07419467885787    7.69076505386120  -14.83712602863122
H         7.15518444523851    8.75595460199884  -14.99505487691816
C         6.53644515888163    6.87857105466938  -15.82303683399373
H         6.19879452511078    7.31350856473711  -16.75269105887757
C         6.43027253905649    5.51610367973021  -15.62685375710970
H         6.01330750828981    4.90304431242352  -16.41087066148616

