65
CSD_code = KEFVID | q = 0 | S = 0 | Stoichiometry = C16H36N6NiO6 | MND = 6
Ni       -0.00008299727304    5.86619086985060    0.00009435948040
C         0.95654977282342    8.32048277100447    2.06359750015633
H         0.19279454507469    7.96865734031429    2.76221172374904
H         1.46697960587254    9.16015250000913    2.53536468684320
C         0.25495752175858    8.85452133808995    0.80185911836366
C         1.97985606591737    7.20196315776861    1.84722075612868
H         2.63633531227483    7.45059439206139    1.00787498780805
C         1.27521115900493    9.35060236529801   -0.22420175226456
H         1.66783980922232    8.51497250750336   -0.79731052636172
H         2.09647841915400    9.85688518806003    0.27503440212467
H         0.82016887926848   10.05481602006319   -0.91534543062308
C         2.82829015542847    7.06198235608665    3.11764592274984
H         2.21942042345245    6.70606106777331    3.94680243131761
H         3.24185686298701    8.02869007877659    3.39018165135098
H         3.66169777555103    6.38106125595916    2.97137128837401
C        -0.64940891388320   10.01093618244619    1.26172312570485
H        -1.09836960088868   10.52647133719499    0.41763657284148
H        -0.06578176121226   10.73975311353928    1.81728761468103
H        -1.44258607663323    9.63746267868391    1.90577962781450
N        -0.57595870455827    7.77381433711409    0.23866440578097
N         1.28380462881687    5.95513564497528    1.51364256233656
C        -1.27737649162479    8.13124786673919   -0.99741652446949
H        -0.54104406521511    8.31672905489558   -1.78302488905305
H        -1.90046013666853    9.02210210725421   -0.86482299201966
C         2.15219945346859    4.78025201243529    1.39222674732734
H         2.67019814146379    4.55485435416369    2.33135836914988
H         2.90036080625120    4.96939999096473    0.61704661786437
O        -1.51178043461751    5.19260458708151    1.71860047950657
O        -3.43165316333610    5.17574079257512    2.64592834923819
N        -2.52396568075830    5.79517700411104    2.14331208699191
H         0.61413722381135    5.75524994039808    2.26551724883866
O        -2.55683842589920    7.02927008024513    2.03010758128197
H        -1.31866329269052    7.58567268987166    0.95004665778506
C        -0.95635107186209    3.41216810461277   -2.06391432024901
H        -0.19239205715820    3.76448017536602   -2.76206785595814
H        -1.46635365777256    2.57253958218961   -2.53623264030515
C        -0.25497915032566    2.87799580676492   -0.80208841858383
C        -1.97987165068789    4.53044834033611   -1.84735730855489
H        -2.63645859465134    4.28145394131858   -1.00819995378132
C        -1.27523107196877    2.38168828140464    0.22385319936608
H        -1.66802279270219    3.21727937692670    0.79692352453100
H        -2.09637199837183    1.87525516764288   -0.27542514824707
H        -0.82010483502116    1.67756492215671    0.91504751140205
C        -2.82810605401898    4.67049866072723   -3.11790756403254
H        -2.21923877334796    5.02684051303116   -3.94688825543301
H        -3.24148150486021    3.70380945228735   -3.39081504573076
H        -3.66166072346330    5.35120086159891   -2.97148870067080
C         0.64959076192784    1.72174455459884   -1.26197119549382
H         1.09857457212135    1.20611004465838   -0.41795910794201
H         0.06615769498702    0.99293584198214   -1.81774461667280
H         1.44277783167962    2.09546236838474   -1.90587106250607
N         0.57580274989198    3.95861813958689   -0.23851237422433
N        -1.28402606469127    5.77731069570393   -1.51337550468674
C         1.27697667548290    3.60120439896777    0.99771592087447
H         0.54051064103650    3.41583403753522    1.78321653452066
H         1.89995391980828    2.71026325990714    0.86525322462584
C        -2.15251878509016    6.95210952907045   -1.39183205799017
H        -2.67055116204353    7.17753511119998   -2.33093421771948
H        -2.90067265184734    6.76282541415054   -0.61667524277999
H        -0.61433476909889    5.97740436746074   -2.26517467003465
H         1.31870270219340    4.14685938848291   -0.94966783933246
O         1.51142109217133    6.53985867021189   -1.71876282666706
O         3.43188972407078    6.55677485445167   -2.64515443120520
N         2.52387948120370    5.93731862904814   -2.14303867944033
O         2.55732270606546    4.70330052492719   -2.02896563787695

