72
CSD_code = KEFVAS | q = 0 | S = 0 | Stoichiometry = C32H30AuO8P | MND = 2
Au        3.81231155467584    1.00558305917225    4.79967846211272
C         5.87254047177427    1.82572382006265    4.93319424904285
C         6.53895906400976    0.77305739733520    5.71029684152050
O         7.13955577826276   -0.16244638751968    5.23317687027895
O         6.43635776775182    0.95678359066324    7.04805333225523
C         7.10756087011999   -0.00394398122601    7.84408190867579
C         5.92994585940363    1.78732867149460    3.47866298719730
C         5.93530642757530    0.51812164794615    2.76248679625843
O         5.10640838354928   -0.34888457433647    3.01387987759366
O         6.86362057596614    0.38657371599717    1.83495886104845
C         6.87343035992057   -0.84808296372291    1.13414097292626
C         5.79541439146455    3.07684985496722    3.00201912209424
C         5.70223243465572    3.45740281926531    1.59586859802449
O         6.10059646308884    4.47985091917001    1.09880113351322
O         5.09010956350237    2.47743650412498    0.88201359106188
C         4.97894749567906    2.69506380876694   -0.51290179159215
C         5.71280543590823    3.95989267630573    4.12448001675503
C         5.39835202830052    5.38711975207853    3.98222491468663
O         4.54611197332753    5.82996194018444    3.24781511790673
O         6.13382255815919    6.16757081123199    4.79379194319283
C         5.89028690922289    7.56092828655112    4.69353020371907
C         5.78822678502961    3.22086448359316    5.29315033212370
C         5.78684238542614    3.74601885274597    6.68595555978993
P         1.65202308152207    0.88505144914227    4.09534776302318
C         1.58598583230855    1.97100976900883    2.64542002725481
C         0.93411206127185    1.63230322555313    1.46566524895188
C         0.98519177469063    2.49923987454237    0.38733372956029
C         1.68024853425356    3.69451691562392    0.48046471960257
C         2.32948137184396    4.03613836106269    1.65728382330060
C         2.28537139572097    3.17265746376411    2.73392018159701
C         0.34314723008284    1.48527432437020    5.19821291727950
C         0.23929000695978    0.86658549220681    6.44253513600395
C        -0.72957342129338    1.27496306182379    7.33809399194362
C        -1.58915534804996    2.31005180483750    7.00079983743606
C        -1.47774278678093    2.93534175873531    5.77000016660901
C        -0.51254804806500    2.52820425623552    4.86492503412096
C         1.04129854157081   -0.71712444738745    3.50958909790563
C         1.98157692622415   -1.58851743644221    2.96456577681399
C         1.57159278093395   -2.81501690289348    2.47442495598203
C         0.23440228331231   -3.17633419878441    2.53458809133697
C        -0.69836141409824   -2.31075399490971    3.08388144450478
C        -0.30113048331028   -1.07904208203506    3.57262792788088
H         6.70579517889649   -1.00268111035605    7.65708041235215
H         8.17578962064742   -0.01073906576777    7.61619635415754
H         6.93982889526086    0.28808361319817    8.87799398005496
H         7.00008742474018   -1.67498100656205    1.83624044931551
H         5.93437353568620   -0.98114050017599    0.59145893686012
H         7.71200020077071   -0.79982610749997    0.44392660994542
H         4.83616802890122    3.75880115095292   -0.71494579116768
H         5.88673274808216    2.35532059256638   -1.01780747136271
H         4.11956208184354    2.12011358401498   -0.85299294346723
H         6.02791930260091    7.89409650719273    3.66279654785611
H         4.86799172108739    7.79321912654625    5.00291159961192
H         6.60775646235240    8.04468210332172    5.35184468991214
H         6.75611507100922    3.56443804538824    7.14964769381134
H         5.60146144400288    4.81612521757596    6.68722758549331
H         5.03536466382299    3.24258782151152    7.29218827126432
H         0.40118884973199    0.69421202618611    1.38952913226963
H         0.48467398368219    2.23460846036642   -0.53318128402113
H         1.72270501783118    4.35836699834361   -0.37035292748801
H         2.88988606699317    4.95470607134061    1.74334187843254
H         2.80586222248520    3.42559680219955    3.64906279723804
H         0.92474845643625    0.06573062596463    6.69007686941800
H        -0.81431178692502    0.79267103527874    8.30049886064804
H        -2.34443339260745    2.63205805999479    7.70197122973156
H        -2.14504827344793    3.74443860600868    5.51255100475111
H        -0.42096539718495    3.01512197370710    3.90420988468667
H         3.02264141220300   -1.29667353474157    2.93495138902974
H         2.29662559399308   -3.49340646799173    2.05026597979808
H        -0.08255609059433   -4.13676536546877    2.15586863063933
H        -1.73918571325811   -2.59587194489504    3.13174704441937
H        -1.02573318485184   -0.40061671748582    4.00205281467880

