45
CSD_code = KEFWAU | q = 0 | S = 0 | Stoichiometry = C20H20N2NiO2 | MND = 4
Ni       -0.00000012895798   -0.00000010104981   -0.00000000310307
O         0.64128252709994   -0.86353241980669    1.50038058442777
N        -1.27731150572230    0.89751379182714    1.01588830591933
H        -1.87318979385267    1.54895041253956    0.50204734751761
C         0.24184632361353   -0.79309470830262    2.71051980697210
C        -0.79466998816100    0.00918719222170    3.16577216772147
H        -1.03329878360449    0.02732948208015    4.21558875069982
C        -1.52007443755315    0.84141296300760    2.29766984882162
C         0.99432869023995   -1.62718126424155    3.68435265998111
C         0.37770282756974   -2.22386923556835    4.78006551139787
H        -0.68395203699896   -2.10228483906549    4.93316405570235
C         1.11467618227347   -2.99736473300875    5.65822098393587
H         0.62713338491335   -3.46160560547058    6.50322956547804
C         2.47263680967882   -3.18237538339121    5.45684887453207
H         3.04520948359150   -3.78404552985135    6.14752102049962
C         3.09202304085008   -2.59915907849249    4.36381332996439
H         4.15021540671125   -2.74446062542329    4.20112005236020
C         2.35661764485823   -1.83297802849879    3.47976423685931
H         2.82787655614205   -1.37283408588636    2.62412578499333
C        -2.60122772685169    1.70148797729049    2.89591262746577
H        -2.14884674388561    2.47921393208036    3.51000339834762
H        -3.24795170035000    1.10453458555180    3.53524959734768
H        -3.20463829029211    2.17493215612355    2.12389602110525
O        -0.64128278230570    0.86353222010548   -1.50038059988320
N         1.27731130259337   -0.89751394515045   -1.01588829394830
H         1.87318956657877   -1.54895058989818   -0.50204733804701
C        -0.24184645060757    0.79309462291073   -2.71051978490138
C         0.79466996079168   -0.00918716434353   -3.16577211585845
H         1.03329885673002   -0.02732933381992   -4.21558867870717
C         1.52007437006632   -0.84141297675216   -2.29766980450862
C        -0.99432874929344    1.62718121211100   -3.68435266466809
C        -0.37770268734537    2.22386955172755   -4.78006520477425
H         0.68395224068113    2.10228537277259   -4.93316347504953
C        -1.11467594047023    2.99736510531788   -5.65822071252167
H        -0.62713300500237    3.46160623317516   -6.50322906582276
C        -2.47263666978791    3.18237541946791   -5.45684895851417
H        -3.04520927017611    3.78404559644119   -6.14752113911728
C        -3.09202310631764    2.59915872349868   -4.36381373366425
H        -4.15021554132751    2.74446003762228   -4.20112072037340
C        -2.35661780673174    1.83297763857744   -3.47976458773564
H        -2.82787686232955    1.37283344440898   -2.62412635568542
C         2.60122779074987   -1.70148785087512   -2.89591254723280
H         2.14884694840186   -2.47921376081601   -3.51000348126997
H         3.24795180828861   -1.10453432624528   -3.53524935003509
H         3.20463828550221   -2.17493208490097   -2.12389591662941

