52
CSD_code = KEFXID | q = 0 | S = 0 | Stoichiometry = C18H27MoN3O3 | MND = 6
Mo        1.36525327395312    2.44536765886381   11.22163205896151
O         0.32973775635832    5.07822801290843   12.49205882674810
O         2.97173742499896    4.13614222784039    9.17607221173957
O         3.80407044432170    2.56790309734466   13.13379213992968
C        -0.24525375817425    2.43245048895853   10.00510886317380
C         0.32536768653368    1.35437213331310   12.56084346323103
C         2.10740493957372    0.74236675404954   10.43194336910712
N        -1.20513660326962    2.49301461097688    9.34373042284650
C        -2.37795759763840    2.65366643372901    8.57730501411033
C        -2.41818681868567    1.54706162019823    7.51825717279579
H        -1.54766040188095    1.61446919193920    6.86962865573830
H        -3.31567705949377    1.64485202469033    6.91287107096615
H        -2.41955882900188    0.56845169876516    7.99365163617025
C        -3.58164614169285    2.54480753931031    9.51995479111909
H        -3.52851053857175    3.31389560943368   10.28724632498121
H        -3.59400943452305    1.57212790830650   10.00725895664839
H        -4.50484002487621    2.66958968355213    8.95990020038889
C        -2.33350406710464    4.03495020852636    7.91552777066222
H        -1.46221684988855    4.11648956243084    7.26961231794287
H        -2.27312486492845    4.81338780073954    8.67278509876048
H        -3.22949212410729    4.19110873717888    7.32005897017074
N        -0.27619629907650    0.72799843450398   13.34074389247092
C        -0.99778796614270   -0.00742756359181   14.30323156554021
C        -2.46673292240570   -0.05181859765417   13.86821758011306
H        -2.55767492183147   -0.52991960380444   12.89515948449730
H        -2.86851453385555    0.95642669953114   13.79622305597666
H        -3.05226011431518   -0.61303528797669   14.59188718597554
C        -0.85491046748469    0.69726176304510   15.65602303699964
H         0.19249149516852    0.75171112660099   15.94404765900395
H        -1.40242746179609    0.15081670792275   16.41978140925381
H        -1.24758670474041    1.70984386941474   15.59708532655757
C        -0.40866551775822   -1.42099669756053   14.36406251476561
H        -0.48773233868161   -1.90478677306100   13.39270207622444
H        -0.94504586491358   -2.01646431336824   15.09838406926985
H         0.64151364942249   -1.37896398339783   14.64439288488723
N         2.60733191519555   -0.23120172761050   10.02578511981064
C         3.30448682457344   -1.37446627304165    9.58298243651673
C         2.34415684940641   -2.56806537287453    9.62141351992054
H         1.97935685647722   -2.72574791353057   10.63413706452791
H         2.85596469653890   -3.46737937048226    9.28856670500466
H         1.49103823798402   -2.38807952302896    8.97083311394082
C         3.79263046171721   -1.11804332736227    8.15361712951163
H         4.44506869242255   -0.24824036501201    8.12967959795506
H         2.94883758037800   -0.93339355344750    7.49235525310345
H         4.34337059727982   -1.98123921905114    7.78862992874335
C         4.49012816399825   -1.60435038317487   10.52667459174019
H         5.15108481433408   -0.74065752645187   10.51746727722094
H         5.05110395931881   -2.48101569630008   10.21273528506831
H         4.13882971352962   -1.75611342423259   11.54501802620802
C         0.69605658211046    4.09762391882408   12.02177332299332
C         2.37071526368152    3.49866056488893    9.91660738491290
C         2.90027234758995    2.50416040820293   12.42954316512094

