65
CSD_code = KEFXUR | q = 1 | S = 0 | Stoichiometry = C30H31BrCoN2(1+) | MND = 9
Co       -1.54085176734653    3.77456114605915   12.85696436198546
Br       -3.32757056784544    0.99513022004348    6.57912334827697
N        -0.34897827429530    2.18688744768395   12.80199724424579
C        -0.61447797001905    4.26385032559196   11.19783047014819
C         2.36850217335293    3.51460479860347    7.46547930552540
H         2.91819984736994    2.76712501545674    6.91431025182641
C        -2.37933767332140    1.09875713561053    8.22325568184950
C         0.03142957470110    5.01840855927554   13.32588127960338
H         0.01418003776070    5.79670439163101   14.08045814998054
H         0.88971605309127    4.36086438135619   13.40122498473876
C        -0.45093579372500    5.35789468118519   12.04084714007122
C        -2.90002436409579    5.82142119101376   15.08483156891287
H        -2.70064354300003    6.75030880888506   14.55689605044118
H        -3.87287837335506    5.91740174480770   15.56990653116888
H        -2.15109872034716    5.69121687203282   15.86169848607030
C        -1.01839105152976    1.27377930586006   10.62944138561151
C         0.57312450237250    0.28015688845941   12.17960152562384
H         0.78558033494670   -0.54013962627978   11.52466117147388
N        -0.27267034770020    1.26814922479558   11.82891472166838
C        -1.02628891820955    2.36840863328370    9.75976471485835
C         0.95563500552655    5.42569299880021    8.88691647351759
H         0.39321596830751    6.17020236098531    9.42541200356300
C        -1.68138831242806    0.09887575048308   10.27631210755195
H        -1.65730479054613   -0.74851564258468   10.94514288492687
C        -3.54767835436122    3.32226288371236   12.35036188184514
C        -3.07946656612665    2.47982577689020   13.39863026611162
C         1.40858249880229    3.12194319721328    8.37907035125967
H         1.22127244655622    2.06990503979922    8.54111385796740
C         0.69237877820057    4.07572962796125    9.10109981074190
C        -1.70696676282866    2.26260601163077    8.55172546720915
H        -1.70268359451387    3.09808452305178    7.86886885359640
C         1.06472070212644    0.57386517610411   13.42992374799515
H         1.76344894434202    0.00704480223706   14.00785361389078
C        -2.94037332502427    4.65086007824226   14.16189012633364
C         1.91280954894649    5.81291992740888    7.96781766617730
H         2.10282674037015    6.86268697714558    7.80379740747222
C         0.45270154511316    1.77538989287699   13.77856398015211
H         0.56172966797560    2.33878512976956   14.68444946178412
C        -4.25846027277463    2.89521121934422   11.10708577521912
H        -3.99617691201019    1.88024617903760   10.82209351704923
H        -5.33473929100286    2.93186416124320   11.28253026617674
H        -4.03280363508162    3.55609285566582   10.27369932906151
C        -4.07950285272875    5.83154675076522   12.12993902506815
H        -3.73492545362917    6.78025796734843   12.52920132949889
H        -3.91174874810675    5.81154545958064   11.05554975922887
H        -5.15735496866514    5.77285049158611   12.29402952329796
C        -2.69780058499568    3.30554805258823   14.52013830982725
C        -3.20381156515758    0.99512920290378   13.45499382879532
H        -2.36624455366756    0.53502473088040   13.97569114035243
H        -4.11021987615513    0.74951532689676   14.01110118013672
H        -3.29037838752912    0.56184587129595   12.46236917411963
C        -2.36952980332056    0.00787804133634    9.08355722396486
H        -2.88853937099830   -0.89903370501267    8.81807696155614
C         2.62284900763536    4.86005732098224    7.25587869823757
H         3.36925554104929    5.16431412956565    6.53894578889678
C        -2.37009896456605    2.79716721811932   15.88611502653312
H        -1.85774226068986    1.83944591927118   15.84196703095218
H        -1.74896700748430    3.50118390105468   16.43385853030927
H        -3.29490748729783    2.65729659801940   16.44801785945845
C        -3.44338603626521    4.66754841071007   12.80938302952576
C        -0.32292007289547    3.63027197411879   10.07464114440134
C        -0.91868682010110    6.74566198816982   11.71690756859967
H        -1.36517207435276    7.22986253361095   12.58164652728342
H        -0.03595688582702    7.32684450341928   11.44444226125156
H        -1.61467596261786    6.76446724040733   10.88290185501851

