55
CSD_code = KEGCOO | q = 0 | S = 0 | Stoichiometry = C23H27ClN2OPt | MND = 6
Pt       11.18980842030246    1.15423623684583    2.92503496665216
Cl       13.28768638586535    0.41234379925890    1.95857555107397
N        12.22166621920269    1.29970212707782    4.98158188196825
N        10.94894219935215   -0.84335106688153    3.96744218699094
O         7.02148871976276    1.52510091013510    3.90676311183976
C         9.44454782198133    1.85971736522372    3.76608565764724
C         9.45649870070356    3.39156086801265    3.69385674618081
C        10.06771511092407    3.90070121132548    2.37418028756123
C        10.95290973093817    2.84171633886590    1.73848414046080
C        10.42704601968562    1.70254924804590    1.06047627268695
C         8.97890739733762    1.44024196121400    0.70309531275181
C         7.89676614251978    1.76492530889832    1.73303408118895
C         8.19779799355090    1.24118452013197    3.13620625648994
C         6.84080642928816    0.71414879341879    5.03103120790089
C        12.29355951941556    0.30597247325108    7.17901819083918
C        13.37636781792298    2.39844538097505    6.73925855275546
C        13.03434672700237    1.41268078298242    7.62897715512440
C        12.95498955101499    2.31171577033105    5.40015181799655
C        11.93308020571543   -0.78971572228004    8.01122995617366
C        11.26976345844581   -1.85897993567051    7.50718767062048
C        10.92215128147241   -1.92363981715281    6.12902603405253
C        10.30333877183907   -3.04007095903493    5.54031907276691
C        10.07268007843075   -3.04069708715469    4.18911181025022
C        10.42358021825783   -1.92028860596108    3.41526538946233
C        11.22451413946934   -0.83620612111070    5.28288150063634
C        11.91382098105788    0.30057336670488    5.82005337886753
C        10.23038432297999   -1.92150362713318    1.93800467024746
C        13.32213225895311    3.34614381141344    4.39539259409864
H         9.43917171739520    1.56859175419742    4.82867979617907
H         8.44163237241871    3.77538321243135    3.83328801930293
H        10.05925785331689    3.76366338086800    4.52606680332250
H        10.66059064820661    4.79698493294008    2.56850864956718
H         9.29150773634577    4.18588081908907    1.66115670857089
H        11.90996159525453    3.21372167550922    1.36842982942955
H        11.08975746696138    1.29189421693764    0.29240403624506
H         8.89213230290257    0.38468835629945    0.43104576152610
H         8.76534231709563    2.01491213342397   -0.20598719746613
H         7.71828803683071    2.83431163359131    1.80201421026099
H         6.95806743541642    1.31217270453785    1.40376218193850
H         8.31777661989241    0.14401191527630    3.09732653798886
H         5.87622506191213    0.98802532703749    5.45603804753904
H         7.61927676789475    0.86636103711766    5.78952130948689
H         6.82834613624881   -0.35065747251515    4.75836733977377
H        13.96695071421496    3.24555002244563    7.05294923947183
H        13.34033233767530    1.46388061615296    8.66417354650314
H        12.21375878917300   -0.75291030611681    9.05379086966583
H        11.00739462186967   -2.69580413585638    8.13797904517453
H        10.03961313688587   -3.88990355065711    6.15327185857652
H         9.62796527550518   -3.89555503230979    3.70288240851838
H        10.60480487848401   -2.84872494541318    1.50876305976238
H        10.77532267704121   -1.07775273613938    1.51032193308967
H         9.17335688228670   -1.83472600915534    1.68845902253181
H        14.24840242532305    3.84673354922161    4.66498613971415
H        12.53152213273641    4.09191177468783    4.31967208543899
H        13.42814543732014    2.86364779467691    3.42280330259965

