33
CSD_code = KEGDAD | q = 0 | S = 0 | Stoichiometry = C18H10FeO4 | MND = 7
Fe        3.35447757594788    3.62441429679800   17.69564200477121
O         0.39050717356416    1.65073396658108   17.81441871235960
O         0.98686260927053    5.28736497936776   17.11165172915936
O         4.97559552833563    5.47810416744043   19.26632959513265
O         4.80335553729928    4.43312991374513   15.31493402902994
C         1.59310057363582    1.76194343355074   17.94061756574892
C         1.85468342844479    4.60293071814608   17.38914756057081
C         4.35279229597802    4.72573162418297   18.66945235701519
C         4.24799062792451    4.10806925129595   16.26033809481618
C         2.34626728506104    1.96880102505132   19.21675308243113
C         1.85240143908006    2.06510973151861   20.52720477652480
H         0.79863784312018    2.23893235642149   20.68724033152165
C         2.72470634303647    1.90061920546829   21.57541950985409
H         2.36445959252244    1.96276697514186   22.59113461800989
C         4.08179374732730    1.61215420382035   21.35287257705498
H         4.72725939430030    1.46044177418028   22.20530235563679
C         4.59384662308655    1.49483064847072   20.08519898688285
H         5.63222960045696    1.24707731344000   19.92088136843019
C         3.72925776178650    1.67780278778886   18.98910409292264
C         3.93872054162581    1.57872140227094   17.56778934388594
H         4.83892665111135    1.17492628943942   17.12994100483737
C         2.67086156528254    1.69623454818380   16.90587066386322
C         2.40095650604315    1.35925591211769   15.50350693025733
C         3.35964887529326    0.73185705272885   14.70567193512040
H         4.32562047029208    0.47702891244707   15.11485276170082
C         3.08404768812674    0.41923792201580   13.38849527234557
H         3.83795713416597   -0.06615274890168   12.78579120617678
C         1.84912897217435    0.72351334165105   12.84073757416262
H         1.63731489451383    0.47808579819561   11.81068631006169
C         0.88909020788847    1.34419299330842   13.62277412001950
H        -0.07658265297614    1.58451216631805   13.20312509439073
C         1.16100090383887    1.66428462883886   14.93851773762232
H         0.40988326244157    2.15014340897602   15.54069669768278

