117
CSD_code = KEGDAC | q = 0 | S = 0 | Stoichiometry = C48H58N4O4S2Zn | MND = 4
C         9.00346658067141    5.21367504565577    1.20751151458218
H         9.26581001041123    4.17172561157926    1.32106731086028
C         9.62713258113870    6.01125395515681    0.23763776082463
H        10.36642461459138    5.57515771679842   -0.41614697890917
C         9.29632938419569    7.33781480371359    0.14984122980725
H         9.77041568520180    7.98640646835354   -0.57330332024029
C         8.32468585779729    7.87207679287468    1.02147237353263
C         7.95056536789959    9.22777402660185    1.04676778472246
H         8.41458502750671    9.91431738112996    0.35503473082716
C         7.01572305381819    9.66259091722085    1.95481993975045
H         6.74520715392410   10.70834493830805    1.98133960028716
C         6.39037066757906    8.78595858593264    2.84123402773353
H         5.65370820079424    9.14610243705327    3.54312692380035
C         6.70384216113374    7.43552851862167    2.83503096544498
C         7.71645916329600    6.97019205495025    1.93497132111396
C         4.05547740438019    7.31114635132290    5.27917067195960
C         3.71530748900101    8.37939206035541    6.11924373310300
C         2.44334790591877    8.92332963843254    6.00309009019256
H         2.16504000025347    9.75002311792251    6.63369600532642
C         1.51168577684299    8.43332815882505    5.09836607091584
C         1.84866469398663    7.31824673447665    4.35391674588741
H         1.11537756644632    6.89115143319805    3.68678944918897
C         3.10604975910319    6.72835134764005    4.44331796686512
C         4.65725552933234    8.85599379914153    7.19906651191554
H         5.63587783420988    9.03065490995665    6.74913293000863
C         4.80880372297084    7.72152863682544    8.22113059523044
H         3.84223944252524    7.47483886546971    8.65862268833534
H         5.48624675971093    8.02360781033874    9.01650189679593
H         5.21470349109691    6.83384840017619    7.74201279202935
C         4.22340337962651   10.13946338157076    7.90515058666389
H         5.00948357417131   10.44892870622182    8.59031754237967
H         3.31662932966768    9.98710681404639    8.48728799945159
H         4.06232132047424   10.94526543807816    7.19242405168602
C         0.15001905113791    9.06912290386533    4.96012985141527
H        -0.40311027959179    8.52355829452495    4.18771916870774
C        -0.63423978030140    8.96367379789545    6.26977421671360
H        -0.14489488212548    9.52658920447792    7.06031550861587
H        -0.70751887677945    7.92485162167800    6.58312376944146
H        -1.63933867462895    9.35883317496716    6.13915867399000
C         0.27434309506390   10.52784003684296    4.51609656518682
H         0.83462209280343   10.59305375321560    3.58614424167710
H         0.78924155680409   11.11903151639347    5.26891142503756
H        -0.71221351517213   10.95805703774014    4.35766310829646
C         3.35383963659287    5.45136130990138    3.68395820505142
H         4.33513686866477    5.06359275459804    3.94439303738177
C         2.33491194082752    4.38494195435507    4.09734262817731
H         2.36461871826593    4.23672972414525    5.17411483768766
H         2.59279070967610    3.44346158233699    3.62042269274969
H         1.32155611314947    4.65679576024929    3.80714446993871
C         3.32144335914756    5.68157803298122    2.17236257447696
H         3.61598404466762    4.76571492661201    1.66719323013290
H         4.02702546365949    6.46210873982787    1.89707874679821
H         2.32669904033738    5.97090794427469    1.83671967841618
C         9.18996819993608    6.52473981860528    5.45299388505745
H         9.16766429947965    7.28883762465873    4.68808795559596
C         9.75717754518756    6.79013402565859    6.70639626809290
H        10.16991890278068    7.76658658085313    6.90528019843051
C         9.75049338313807    5.81015986816092    7.66312864098898
H        10.15894860136234    5.98732599938012    8.64859864903959
C         9.19328373942111    4.55024797607626    7.36442339016545
C         9.10831134676718    3.48426897780346    8.28107633402295
H         9.51221841016022    3.61247930486364    9.27435009654398
C         8.49675191460984    2.31323464362341    7.91292852577905
H         8.41363499703088    1.50609506909550    8.62687236615190
C         7.97356034415360    2.12891353121190    6.62991314409155
H         7.47015237665508    1.21029489757786    6.37015162102328
C         8.06040039839463    3.13780974558283    5.69055910446718
C         8.66423928064319    4.37793429635381    6.06198078373598
C         6.53541991397942    0.83018726774478    3.00268941594558
C         5.37018422692938    0.13217878571759    2.67265493873983
C         5.48085795674150   -1.14981741142734    2.15236604300682
H         4.58146420244299   -1.69822245756179    1.92233418036050
C         6.71397664556623   -1.74160297310529    1.92775636941431
C         7.84859278673366   -0.98887528909759    2.17431579171636
H         8.81470493502713   -1.41969610153526    1.95781387277205
C         7.78647616825296    0.30029613780811    2.69677185130031
C         3.99585605041378    0.73835079380226    2.82647052961172
H         4.11613106275218    1.79402896157668    3.06723254342241
C         3.23769461264839    0.06808669128956    3.97370099939396
H         3.75449573721143    0.26960110247027    4.90767892047629
H         3.17346172736556   -1.00793141695717    3.82428327299179
H         2.23001312948329    0.47176597934459    4.04144735954613
C         3.20814522582689    0.64835204974360    1.51558355411373
H         3.79223723994974    1.05897924572266    0.69523032647376
H         2.28756028519858    1.22104635346765    1.60271809338258
H         2.94339953134692   -0.37849020152370    1.27482519273745
C         6.82323000468923   -3.15159726112072    1.40150899546232
H         7.88619270890109   -3.39772681402994    1.30160334181869
C         6.17603375299493   -3.26925607734659    0.02004834365329
H         6.62116961146313   -2.55448029749875   -0.66829079505080
H         5.10865601948024   -3.07262631655290    0.07481973503773
H         6.32011811527333   -4.27118700902656   -0.37833401987557
C         6.19484931034328   -4.14285037260419    2.38291917807226
H         6.32936059266323   -5.16183681119159    2.02664959987215
H         5.13001582408503   -3.95539485564286    2.49266554394343
H         6.66080405460093   -4.05269033231954    3.36142602844896
C         9.07979649583152    1.06521937300778    2.85218998730100
H         8.84176983464498    2.08503240288433    3.15452433435034
C         9.82492852717197    1.13750835895161    1.51489436078741
H        10.68890354201493    1.79184246397484    1.61160440589260
H         9.17124681608529    1.53304329851858    0.74029258563294
H        10.17825110382349    0.15918141045239    1.19814141246384
C         9.96106821825814    0.43618411295362    3.93382042436035
H         9.44001566103081    0.43543581846023    4.88757196350024
H        10.87782519678958    1.01016797779615    4.04771329601537
H        10.22382064198727   -0.58845834895486    3.67873371138932
N         8.08362011873343    5.67645514588908    2.02054101478565
N         6.12125008226778    6.48568538097040    3.59633948744766
N         8.66467063312429    5.36500249094499    5.14220902291689
N         7.63461547994698    3.07882883635140    4.39824033849684
O         6.67956767645648    7.65156199228184    5.72007708393545
O         5.83891206644897    5.34860509497260    5.69275296122031
O         5.40666632565783    2.02561262860913    5.02428086143031
O         5.77242582347684    3.34752166557842    2.95031090751654
Zn        7.11764526762071    4.84686079448288    3.73927243670740
S         6.26777169444949    2.37159966031562    3.93025179286780
S         5.75304745027003    6.69522678301348    5.16149729902740

