35
CSD_code = KEGFOU | q = 0 | S = 0 | Stoichiometry = C15H15AuF3N | MND = 2
Au        3.71512773079181    4.06228369334032    5.66943181649969
C         1.06031847797593   10.79910373242420    0.63127269962270
C         1.50362420110078    9.66555316109878    1.50134670951071
C         1.84897671038562    8.46081707585041    0.89542559275815
H         1.78316458035003    8.36645521515042   -0.17856455648561
C         1.58215696296299    9.80786400402879    2.88150195049618
H         1.31312279773336   10.74637736005043    3.34242768233837
C         2.26864560073592    7.40076705023146    1.66920239631589
H         2.53775578508133    6.46212532305534    1.20779537795810
C         2.00230686921537    8.74512636973199    3.65335771447158
H         2.06564003164032    8.84523043248253    4.72691287116586
C         2.35072442685300    7.52822285934210    3.05968002731903
C         2.77836070815530    6.44360898237810    3.85815502550541
C         3.14098047830358    5.51469010350598    4.54699485322707
C         4.26747206021919    2.67464249859056    6.82066925258542
C         5.01308148630422    0.92283742797653    8.52117015860656
H         4.18691548427519    0.72582577430328    9.21274718589126
H         5.85963961803860    1.32190418166016    9.09028467591992
C         5.41841333296341   -0.36226505991476    7.79329308397401
H         6.21603967486072   -0.13600661332659    7.08222436548282
H         4.56361098380530   -0.74048798176853    7.22831003867198
C         5.89426426187013   -1.42218596276412    8.78288173199658
H         6.75113990567380   -1.03932530131899    9.34233222492900
H         5.09781008648427   -1.63499827148899    9.49994212067480
C         6.29314910506914   -2.71641671903914    8.07717742948011
H         7.08402880957140   -2.50478679829787    7.35445937504756
H         5.43515274162781   -3.10566375542050    7.52497813667311
C         6.77909696804634   -3.76799179726707    9.06663986064964
H         7.65532761696954   -3.41195176737631    9.60383595687231
H         7.04484556564274   -4.68507066274692    8.54735569798988
H         6.00241867979421   -3.99781753773419    9.79265391534979
F         2.04263603991089   11.23557140057125   -0.18776587900370
F         0.04006535669775   10.45812775710580   -0.18352380995842
F         0.64513367063327   11.87621570524187    1.31548998353270
N         4.59885319025790    1.90221812034072    7.62040433392886

