100
CSD_code = KEGHEM | q = 0 | S = 0 | Stoichiometry = C48H42N2O4P2RuS | MND = 6
Ru        4.52651695318112   14.78861161167963    4.60348314417382
S         5.44849398790906   13.21355074887726    3.01211151501015
P         3.67529097829435   15.88063937050500    6.51944771988080
P         3.17020726464085   15.49109150829798    2.85381662748985
O         6.61281125975888   16.87385812230520    4.13581522136729
O         3.01733530204729   13.39480665376597    5.05731872906442
O         2.46307725481575    7.26329265423271    5.36479599446262
O         4.59457518581345    7.42560807446843    5.09698179340325
N         5.92471121907710   13.35009221810229    5.59225768098668
N         3.48093568661053    7.92138021607742    5.20239474334946
C         5.80239013338734   16.06838203870867    4.28210219229947
C         5.64366499395650   12.29082288478015    4.58907337811050
H         6.50006715721356   11.61418829074456    4.47291313055670
C         7.33934715878782   13.74225381565379    5.48034402290525
H         7.47083466455118   14.71843132038505    5.95557924179438
H         7.62225897388158   13.82919217625306    4.42830289163906
C         8.15057463993901   12.67472147590895    6.24064203351322
H         8.94916374162468   13.14337564495309    6.81313173807911
H         8.60968227600126   11.96410293466821    5.55495179859154
C         7.11984814842060   11.98939101222686    7.15127100272018
H         6.94034905905516   10.96005637011945    6.84199617426211
H         7.42706269376620   11.97757230433886    8.19508575750807
C         5.85175875373177   12.83151692509053    6.96219588186924
H         4.93374180733009   12.26558113878489    7.12748385397891
H         5.86629194584428   13.68232008397574    7.64962637409951
C         4.42003086501532   11.47698658222317    4.88400956319678
C         3.15901479782007   12.12364687765496    5.06801041929032
C         2.02163076373153   11.30080348659859    5.28488119757840
H         1.06946209906216   11.79548729052560    5.41099540196964
C         2.12130695357346    9.93961296751783    5.32186809750210
H         1.25538711330151    9.31652521662806    5.48703209825153
C         3.36658666798099    9.32680652628098    5.14557877871883
C         4.50250038923249   10.10648776528394    4.92080450508751
H         5.44827717767476    9.60480249565652    4.77124759813640
C         3.69993427791968   14.95171331767920    8.10112031360710
C         4.44839346088495   15.30398859239295    9.21848174705427
H         5.08304841714664   16.17876978030070    9.20021780521773
C         4.37921582521108   14.53308269255716   10.36711105469406
H         4.96238493938828   14.81381372811374   11.23212884780828
C         3.56873379400200   13.41178420788333   10.41170274624404
H         3.52351791850356   12.81270381470273   11.30877695471204
C         2.80879467898133   13.06532090626236    9.30536721048291
H         2.16752133276160   12.19691640575570    9.33789192198800
C         2.86920198646404   13.83348384194528    8.15911072246457
H         2.27493625000533   13.57418571659778    7.29389431493829
C         4.56869537870134   17.41111743165087    6.95485992888351
C         5.94124046196600   17.28891970495815    7.16338349702130
H         6.39588896069655   16.30729544677032    7.09651955347978
C         6.71430706354711   18.39838709883121    7.44394206373266
H         7.77662676464883   18.29056722803555    7.60586031159988
C         6.12376024591760   19.65067430575746    7.50669236613007
H         6.72513310801877   20.52149770222048    7.71991598912346
C         4.76357124656423   19.78308896647020    7.28671008785086
H         4.30323929217291   20.75950490678442    7.32820368364579
C         3.98577794709823   18.67163435820867    7.00988206948693
H         2.92638229390921   18.78871408542610    6.83174942869521
C         1.91394947819916   16.34071995778957    6.64362528565928
C         1.42775389684122   16.97656888238358    7.78479119360517
H         2.10211016128017   17.22860206489693    8.59224501473739
C         0.08226944346901   17.27424432362349    7.88317456561392
H        -0.29370550958350   17.77483487133750    8.76350165682177
C        -0.78779793029634   16.92117629981979    6.86219644025890
H        -1.83941216683890   17.15121642280660    6.94910047197424
C        -0.31160008695015   16.25941892294916    5.74373957163303
H        -0.99103699413428   15.95896881043869    4.95994710456549
C         1.03746867549035   15.97144853433663    5.63593918335733
H         1.42654717318011   15.43115684526202    4.78318138267095
C         4.07724352085183   15.52260716012468    1.26470717533846
C         5.06106401846018   16.50196351490232    1.14194966485424
H         5.23173752182734   17.18811749873950    1.96121851049629
C         5.80662545040265   16.60196531802783   -0.01552127484757
H         6.57133421252520   17.36016959780166   -0.09897847866504
C         5.57488242947792   15.72817840352677   -1.06635395732965
H         6.16203268846345   15.80095695146084   -1.96984870492945
C         4.58833154109134   14.76502525294309   -0.95533381579345
H         4.40004783802150   14.08579938410991   -1.77390362735026
C         3.83751711229387   14.65977573171282    0.20350796297733
H         3.07044755260261   13.90284029604116    0.27356910203200
C         2.50159828224576   17.18379648702663    2.75106480699074
C         2.79097142529929   18.09081138896780    3.75922296185425
H         3.38220209322121   17.75460194862256    4.60468295334063
C         2.35233783383855   19.39961087792904    3.66928305519392
H         2.58666435326462   20.10317000381437    4.45461186829453
C         1.62321436262769   19.80648033395288    2.56464820558420
H         1.27731146860331   20.82687798728807    2.49120937598897
C         1.34962265914992   18.90907099765540    1.54325477168007
H         0.79549572136745   19.23272219633403    0.67437088404260
C         1.79382675565195   17.60316562600990    1.62763970888585
H         1.60385365894108   16.90627671489314    0.82242991126766
C         1.75766067489884   14.39618902452640    2.50244353595726
C         2.02660620406060   13.04197588733611    2.30879764926753
H         3.05157059617268   12.69255238783396    2.32828361505663
C         0.99331079978204   12.14663255585892    2.10659726788420
H         1.21221819546895   11.09796255589367    1.96922036714380
C        -0.31813751129113   12.59319553527144    2.09185710009658
H        -1.12639177308590   11.89327062247158    1.93968381317266
C        -0.59097297976051   13.93804884973695    2.27940059633480
H        -1.61333054725380   14.28847438196050    2.26722677539125
C         0.43822164307235   14.83876387182503    2.49091615357721
H         0.21374234450757   15.88443167825207    2.65042727634282

