42
CSD_code = KEGKEN | q = 0 | S = 0 | Stoichiometry = C15H14F3N5O4Zn | MND = 5
Zn        6.47642394692044    0.52204211607721   10.20120376872761
O         6.39003909771978    2.36814536339976   10.90297126096348
N         6.19717787188256    2.21734182704596   12.22436983742345
H         5.91612452960217    3.06252361554891   12.70582485048122
C         6.31390061185712    1.04390564278654   12.80833808636893
O         6.65242149401176    0.02932348601756   12.14108998637442
C         6.09030630109116    0.95535869199223   14.26614128698185
C         6.67807266911807   -0.10702567376961   14.95138002615789
H         7.26919198231068   -0.81239640282335   14.38772114791840
C         6.50797644322918   -0.24424168340361   16.31546048155389
H         6.97247295701287   -1.06830717334791   16.83680916292910
C         5.74043598091646    0.67362091078147   17.01388984543533
H         5.60461193780671    0.56854725831582   18.08009199374428
C         5.13743049248131    1.72227945232509   16.33849788686195
H         4.52590236746151    2.42993455582466   16.87889375451647
C         5.30707385199537    1.86568622845426   14.97334380462898
H         4.80332856026521    2.67231518983831   14.46178194152075
N         8.26099420302541    0.84568241166010    9.26861615642340
C         8.39264443189215    2.00424769775842    8.67476005605106
H         7.69834202900929    2.81091731445388    8.78589584935616
N         9.50517065105148    2.02870343435492    7.92308472183730
H         9.82933655592914    2.79830226358906    7.35977940434705
C        10.11137199866436    0.81100960896324    8.04654366211388
H        11.02431431092508    0.57000823828761    7.54278960424775
C         9.32140025953841    0.08639077817164    8.88771832622630
H         9.44279825483230   -0.91529715722811    9.24500914532478
N         6.33835895026443   -1.47079633807621    9.63541201231755
C         5.53725008566265   -2.23672332858741   10.33254772630643
H         5.32451537935910   -2.09253992372015   11.37170169006741
N         5.02769907921956   -3.21816854845997    9.57084888161308
H         4.35961099010384   -3.91489681080378    9.85811958656813
C         5.52926086679519   -3.05894870704384    8.31047618316389
H         5.26843197061422   -3.70892057871690    7.50170200180592
C         6.34401484695749   -1.96950022488757    8.36953279971282
H         6.91884395960865   -1.50559511121706    7.59488065753656
O         5.42301728366861    0.93712990976717    8.35246996765837
O         4.29968449356278    0.40414058269388   10.17723542632376
C         4.39476386949972    0.68608843862249    8.98222152300966
C         3.06809782061124    0.62575011001333    8.16391198490828
F         2.02019549954961    1.15538468676493    8.80575581295286
F         3.14382124595165    1.23087879943829    6.97329587958857
F         2.74826986803356   -0.66530095083515    7.91358181791404

