61
CSD_code = KEGLIS | q = 0 | S = 0 | Stoichiometry = C24H24CdN6O6 | MND = 8
Cd       -0.00178846758086    5.65529722240869    3.95405982974588
C         2.94625718094205    4.76997559815179    3.71121873839847
C         4.23597202906757    5.28041892232861    3.62584149069877
H         4.93022428996887    5.15889484535569    4.44154546863253
C         4.60466378150656    6.02170321676690    2.50889466093738
C         3.65694234533294    6.18698632724499    1.50597454420717
H         3.89191684906061    6.75087309496331    0.61638502864818
C         2.39156530626270    5.64897591710124    1.67555181529449
H         1.61917244467647    5.78124190611317    0.93056568131739
C         2.46848488372566    4.00282204397779    4.87646632335434
C         3.33382330284022    3.35036761024247    5.74991945873253
H         4.39973682920256    3.38768003299291    5.59134338042476
C         2.82252402906148    2.64999571702923    6.83392507491684
C         1.43875167828032    2.61031664141529    6.97608027750359
H         0.98724078656228    2.07933840205968    7.79996091082761
C         0.64738870913653    3.26875454818327    6.05236737168255
H        -0.43157079533931    3.26646813358550    6.12870606651744
C         5.96068762185891    6.64167855935515    2.41989348699632
H         6.19654079394970    6.92343974054342    1.39694669964194
H         6.72456812395477    5.96194331484016    2.79159628449035
H         5.98367267481877    7.53915720490086    3.03762946697596
C         3.72888736523484    1.98677612803333    7.81856580942554
H         3.22475518322253    1.16634277579424    8.32302714195167
H         4.03325966881506    2.71327993189475    8.57207415925814
H         4.62669709141860    1.61330100113953    7.33177624603123
N         2.03636614234279    4.96528372565863    2.75064688167416
N         1.14265932538487    3.94998883630047    5.03181781098036
N         1.57125855641388    6.72446573084625    5.37650954863097
O         0.54923591073272    6.35861480472889    5.95631309245761
O         1.49250211422417    7.15927729561678    4.22661696204028
O         2.64473302037614    6.65853117162994    5.93147703072008
C        -2.95008686970138    4.77123190824405    4.17803916871955
C        -4.23836279343025    5.28650598897912    4.25477585561521
H        -4.92673531354380    5.16911566622265    3.43348114451166
C        -4.61172731032400    6.02848261616944    5.36965767944921
C        -3.67077059039377    6.18737185268734    6.38000969520907
H        -3.90977526391760    6.75108088222837    7.26864070898637
C        -2.40643291988694    5.64424481487292    6.21895853448333
H        -1.63895843962974    5.77216507225805    6.96976038876577
C        -2.46747520713647    4.00522524242588    3.01419889389178
C        -3.32915086580535    3.34813424652378    2.14064587217807
H        -4.39532382488405    3.38041795021601    2.29894637561107
C        -2.81361388979221    2.64809436441442    1.05835203063595
C        -1.42960484883154    2.61553519728447    0.91705202035645
H        -0.97480887305107    2.08592916242987    0.09408824935061
C        -0.64206370633991    3.27849861945953    1.84084022289499
H         0.43688114888569    3.28146355005259    1.76530356010626
C        -5.96452600150858    6.65673967307540    5.44786247563615
H        -6.20845012405076    6.93718912828031    6.46925948113260
H        -6.72919189518824    5.98326183688896    5.06656410815550
H        -5.97535059211722    7.55610256675042    4.83250103865134
C        -3.71580108229104    1.97678540201457    0.07533705465087
H        -3.20561931087679    1.15981889197511   -0.42866314960380
H        -4.02707191718127    2.69974638441806   -0.67872981321870
H        -4.60990347742061    1.59654504922679    0.56372926674544
N        -2.04580534398943    4.96150117019371    5.14491386668138
N        -1.14136945171869    3.95795291035554    2.86053338169706
N        -1.57339975619563    6.74663518676277    2.54393475297401
O        -0.55465513113273    6.37875298649230    1.95931987338957
O        -1.48975734437849    7.17086852765816    3.69747486788817
O        -2.64821777960688    6.69221275012819    1.99021565136989

