87
CSD_code = KEGMUH | q = 0 | S = 0 | Stoichiometry = C34H46O6Zn | MND = 2
Zn       27.37928500671396    0.00049664192239    5.87857357752373
O        27.86307498557037    3.00979487050814    5.98552757104267
O        26.69494866214680    4.01380639264134    3.25040834748373
O        26.95455443356190    5.91476292676211    4.40421404899247
C        26.08124001065262    1.49192230938662    5.54130235544902
C        29.87593346686365    0.69249850626783    8.82218566645966
C        26.55131735407707    4.78580120040589    4.33517952836599
C        29.82455341716132    1.90796350100265    6.72820606671623
C        24.35066451502246    3.84040891609483    4.94611424460594
C        25.78853265026506    4.04164308551856    5.42942997485720
C        26.53066458256007    2.73030845562268    5.66463694703167
C        30.50399691115204    1.15934038541868    7.67496362543491
C        28.54314782521212    1.05372353181756    9.01342292673908
C        30.57896449855634   -0.15883717518100    9.86689962689315
C        30.81646354637731    0.69998955136483   11.11744953090160
C        28.48312697275122    2.22558622865887    6.91181607173980
C        25.80278117251001    4.87837692376574    6.71205515701904
C        31.92976736079918   -0.68525826431262    9.37347862811452
C        27.39114879767605    4.59427758781274    2.15839002190430
C        29.69478055370847   -1.36254651860734   10.22809130812915
C        27.85148868382878    1.80495017145702    8.08528667850686
H        23.77459264280641    3.30607560472484    5.69825543250762
H        24.33213979463524    3.28110188927192    4.01494743759446
H        23.88507289807320    4.80986597431597    4.77958621175056
H        31.45720535578953    1.54616956252158   10.87870668383142
H        31.29780205501798    0.10900791618239   11.89369343417653
H        29.87810193123961    1.08492299717526   11.50856471400363
H        25.38564968394288    5.86286289900584    6.51632621323856
H        26.82239196245402    5.00664749418716    7.06636943850508
H        25.21375812345453    4.38747342717257    7.48392108154527
H        32.63268347632663    0.12707399118638    9.20597705496893
H        31.81337286237955   -1.25022980501267    8.45175074710150
H        32.36048779483399   -1.34503655021907   10.12383709926089
H        28.82543927512226   -1.05649025847701   10.80329711592197
H        30.25837272935107   -2.07153885091093   10.83112258022245
H        29.34573481489472   -1.86731103498455    9.32994863369121
H        25.04714155031436    1.38669428967880    5.25065943635977
H        30.33088131001062    2.27332952077966    5.84733970075104
H        31.54239441935452    0.93797351630979    7.48902109370125
H        28.02724072698211    0.75960172264129    9.91439092932679
H        26.83000556715764    2.10240150434382    8.27626377787853
H        27.34977344301188    3.86735988234992    1.35122721878504
H        28.42637196739618    4.80037654070207    2.43714086401588
H        26.91525596375105    5.53053248396000    1.85904572820595
O        26.92901387584862   -3.02639344208419    5.76443699837825
O        28.07395889301359   -4.02954574813389    8.49208540835951
O        27.86652682038635   -5.92727287756161    7.32269858385160
C        28.68715293822138   -1.48155846611944    6.21759132031221
C        24.86320470191843   -0.69354517158821    2.97925006814885
C        28.24829840294458   -4.79175335327773    7.40501531932659
C        24.95092910658564   -1.92559520770875    5.06248497414603
C        30.44166868760324   -3.80704450270743    6.83395920840235
C        29.01450342381340   -4.02682673463895    6.32774396497106
C        28.25476119062346   -2.72574078288574    6.09151031016324
C        24.25401212277722   -1.17333948292156    4.13126570996551
C        26.19586711147815   -1.04379242862420    2.76712678918019
C        24.13706816244789    0.15607115859876    1.94898157441476
C        23.86670313344652   -0.70951586403828    0.70970569543820
C        26.29104105929359   -2.23470059345701    4.85684207931973
C        29.03210994897185   -4.85278844635009    5.03828520214992
C        22.80033042075016    0.68788327951721    2.47424099570097
C        27.37275493458887   -4.63020594411227    9.56976824046012
C        25.01327338461130    1.35631386280352    1.55839584115951
C        26.90458609653141   -1.79864896610830    3.67935740518388
H        31.02183557046326   -3.26206645705725    6.09276345154962
H        30.43753009781152   -3.25075174549097    7.76706183801059
H        30.91832165033049   -4.77043171293167    7.00466182916033
H        23.23161118089030   -1.55375137694830    0.96951124011536
H        23.36630448723106   -0.12249096558328   -0.05739942471628
H        24.79475476922687   -1.09754086604471    0.29746977477336
H        29.46472885094501   -5.83113162211439    5.23128475144881
H        28.01956946850225   -4.99651598135378    4.66991115424703
H        29.62186442351079   -4.34455305689088    4.27829425884667
H        22.09787974784725   -0.12129981381449    2.65791311333440
H        22.94093038596676    1.25168691161965    3.39332929871243
H        22.35464052900642    1.34981297925460    1.73460043229545
H        25.86487020228484    1.04646941529432    0.95916881796795
H        24.43407638573209    2.06410956063361    0.96888493385562
H        25.38871970608631    1.86383861824326    2.44425326138806
H        29.71850110916374   -1.36384928603078    6.51331398253858
H        24.45857831484352   -2.30227072072761    5.94652117330634
H        23.21689683444394   -0.96010547335515    4.33311595139081
H        26.69750505947126   -0.73892317518490    1.86178993380150
H        27.92517431673344   -2.08853188006914    3.47239505659453
H        27.37145295065768   -3.90027620730001   10.37523939392685
H        26.35173858393607   -4.87214788091123    9.26823523070063
H        27.87294520358136   -5.54915349709429    9.88311032649348

