62
CSD_code = KEGREU | q = 0 | S = 0 | Stoichiometry = C28H26ClN3NiO3 | MND = 4
Ni        6.03890822797588    1.47300156234634    2.67668412053393
Cl        8.44725593773330    1.63058552175600    3.32929371288186
O         6.19069713568707    2.90255969545570    1.50381937909575
O         6.32835671325222    3.38909369544139   -0.65595843118755
O         4.68549637583370   -0.44854754760875    5.77834378283474
N         6.27431670243130    0.38627694267556    1.20366004077441
N         5.77484088874692    0.00701418789309    3.78764010049401
N         5.42209390484507    2.61927988614331    4.16873744740853
C         6.19171454735254    2.61139326068039    0.26284152662091
C         5.94388238451711    1.09505719486069   -0.01640432397595
H         6.54228734591232    0.75600138399966   -0.86960474332984
C         4.45673060727020    0.91937660073254   -0.33242202644206
H         4.24329371389518   -0.11257239248860   -0.60725379599578
H         4.18580897192279    1.57465959322803   -1.15621525113228
H         3.86090742472210    1.18220458858797    0.54332404719338
C         6.76422090203481   -0.80382829414083    1.19190292964092
C         7.03203335029018   -1.54800540601399    2.40960877938986
C         6.49805538352565   -1.15968114082837    3.66870477008494
C         6.77185764370244   -1.98257740376285    4.77205142045685
H         6.36368417460639   -1.71272852751999    5.73062399616045
C         7.54980989214544   -3.11112505563424    4.65618976336441
H         7.74878823268494   -3.70764239672045    5.53406843295608
C         8.08347006875401   -3.48008576227690    3.42781014947317
H         8.69867260815382   -4.36211175113911    3.33809459723780
C         7.81500954384926   -2.70647143746441    2.32331924310148
H         8.22755469015860   -2.98552502944876    1.36515394100425
C         7.04968669240204   -1.49299041309146   -0.09530753059910
C         8.20036208480745   -1.18840273710577   -0.81534828536023
H         8.89387334008871   -0.45531061249331   -0.42903293395715
C         8.45312526669315   -1.82720970683859   -2.01605678843477
H         9.34777976776765   -1.58780905046542   -2.57080003548935
C         7.56069002973153   -2.76642097065705   -2.50596178926158
H         7.75819966425666   -3.26004018349514   -3.44549875388386
C         6.41619816134277   -3.07289707905154   -1.78939813492562
H         5.72017782780454   -3.80665290489496   -2.16753495667637
C         6.15996595152766   -2.44113155103034   -0.58515504739136
H         5.27185095560458   -2.68168472662171   -0.01890327427930
C         4.99597482322174    0.28630872647639    4.85525608160458
C         4.43839864057886    1.70790391686053    4.77516060228871
H         4.16638372351578    2.04545310705800    5.78585299632700
C         3.22359894463219    1.79366338944078    3.83712781055635
H         3.28092592912193    0.99794176353702    3.08829015322965
H         2.29590240972053    1.66690777019129    4.39116562973133
C         3.33911497782018    3.17879452340508    3.17242391078939
H         2.47451823852631    3.80640577407773    3.37969696741414
H         3.43958062608496    3.08550872383123    2.09147981433528
C         4.61273558207819    3.78079472403572    3.76472562061883
H         5.15845641698527    4.39726709805166    3.05071516527001
H         4.37336127305271    4.37934224067941    4.65503875089318
C         6.45896233168774    3.04544331480156    5.12425631518196
H         5.97865025114090    3.60458288990950    5.94165499718881
H         7.13385476007599    3.72480544634712    4.59238860368019
C         7.25070644288748    1.91555272486539    5.72706259700154
C         8.22280021286156    1.23426693667528    4.99636992229209
C         8.97120020785411    0.21530027267659    5.56034820953464
H         9.70726819110748   -0.29868155397937    4.96338936940430
C         8.75368447075822   -0.13862176094807    6.88025746319474
H         9.33152972823278   -0.93561836854162    7.32139776257461
C         7.78847852916900    0.51868161755873    7.62263845767094
H         7.60570846683434    0.23710196155639    8.64782787555982
C         7.04889997537476    1.53674515254248    7.04862038420159
H         6.29704773264344    2.04439757587489    7.63453846107158

