98
CSD_code = KEGTUL | q = 0 | S = 0 | Stoichiometry = C54H39AuClP3 | MND = 4
Au        5.52334114818554    4.93950041766891    4.29089068433489
Cl        7.38478798547059    6.49205584422021    4.43003855158827
P         3.50642199580666    5.57520586612852    3.05630919127990
P         5.98471821566775    2.66080025179985    3.45733696839501
P         4.65403576778298    4.11058186583399    6.48253523649415
C         2.50328449443929    6.09388675609632    4.46647841858355
C         2.94256383843418    6.83242507995385    5.55253946123963
C         2.06011641304074    7.08301297649735    6.59034223798089
C         0.76426557765972    6.58635300300266    6.54202592040631
C         0.32834591884244    5.83375079331581    5.46374782755983
C         1.19757437380665    5.57628477142249    4.41183933732621
C         0.94529574490745    4.80509585407734    3.20472905232731
C        -0.22283761619825    4.15072420574058    2.84070712618245
C        -0.27633954398889    3.46218098569111    1.64073886396364
C         0.82561727557843    3.41448759112469    0.79857381094876
C         2.00367849431204    4.05325103762035    1.14836123233109
C         2.05643793648931    4.75582866214632    2.34022690021377
C         3.67744655394914    7.10829959878297    2.09587985250400
C         4.83298627481313    7.85708240016111    2.29486868260309
C         5.00948686536889    9.04230763442893    1.60442039312837
C         4.04340752822840    9.47569008606694    0.71151131476780
C         2.89572879660754    8.72488440589159    0.51033036888632
C         2.70511104771465    7.54185398951013    1.19990537264175
C         4.60333262078136    1.65162835817624    4.02645202889254
C         3.29143643646718    2.06213058887410    4.17166332704155
C         2.34221397560765    1.15239706664255    4.60545993820695
C         2.71784802799314   -0.14174351960247    4.93241650055501
C         4.03742074554619   -0.54833104980305    4.82361506657348
C         4.99464878331033    0.34200841956767    4.36002876854490
C         6.40934980853591    0.10214096870864    4.12964901668213
C         7.13218252199029   -1.05494948229596    4.38076873242737
C         8.48179216249429   -1.09754717507646    4.07689346284718
C         9.12250070436427    0.00284701949801    3.52457562384518
C         8.42013589099551    1.16994697986748    3.27631989540304
C         7.06747908456633    1.21084693853138    3.56659167361741
C         5.62641123306706    2.81299000324402    1.67833050242517
C         5.84503617107759    4.04387018782962    1.06833934496872
C         5.55543684856156    4.21039286800661   -0.27475759940916
C         5.05124138746608    3.14897589878207   -1.00880571359569
C         4.84133769859759    1.91895215901067   -0.40266422343820
C         5.12616925631446    1.74595533693649    0.93869544947158
C         5.97343268659631    2.90208873304210    6.76195517439839
C         7.31386549861609    3.05760465821667    6.44905678954220
C         8.18139497224264    2.00144374522800    6.67787099960344
C         7.70861802755276    0.80305668822634    7.19149436819033
C         6.36710948497401    0.64008650954728    7.49068815546795
C         5.48467266717148    1.69001401073402    7.28018432514526
C         4.05046375837777    1.71068204618564    7.51260250541753
C         3.25625404835024    0.69039249098666    8.01590801862091
C         1.89516917045494    0.89128727811276    8.16425955822433
C         1.31309494850774    2.09892279097977    7.80670540894428
C         2.08903665344810    3.12639149824769    7.29704287059883
C         3.45410178604997    2.93601790161373    7.16631447085777
C         4.91810771412274    5.28015441424749    7.85261062899487
C         5.92652317866142    6.22454936728177    7.68248452176729
C         6.16746429099231    7.15990000605812    8.67133319873949
C         5.39876901370709    7.16605256972247    9.82405451855654
C         4.38788389870057    6.23304651361817    9.98663697361027
C         4.14215292478970    5.28837448411682    9.00623947599600
H         3.95553862145399    7.21177054630689    5.58044999181785
H         2.38631729941900    7.65773772380132    7.44456191679095
H         0.08819442513151    6.78271099928155    7.36182426857890
H        -0.67927292422003    5.44379399011621    5.44628638026448
H        -1.08611629207720    4.17751236729293    3.48963097018394
H        -1.18683365466412    2.95440809964526    1.35763060567661
H         0.76694603896284    2.87167893803939   -0.13328618776052
H         2.86949687563189    4.01320610305426    0.50284105377010
H         5.59286885849686    7.50973119773974    2.98273258201024
H         5.90661217634930    9.62225003793625    1.76143138931006
H         4.18427683533463   10.39856269469017    0.16797351330242
H         2.14309411032031    9.06331901369149   -0.18736212245265
H         1.80908893046001    6.95764667444436    1.04261433314476
H         3.01333002281710    3.08128774467123    3.93381918030030
H         1.31050900132173    1.45744359742552    4.69885307884100
H         1.97135591427336   -0.84148591578854    5.27866070817450
H         4.31728766020167   -1.55723036109782    5.08970876393176
H         6.64638689518776   -1.91585939494351    4.81655960717192
H         9.04484546903639   -1.99804803771996    4.27504135449926
H        10.17671083285946   -0.04966742731323    3.29545759393161
H         8.91169029573732    2.03863170310736    2.86143158885595
H         6.25107949195556    4.86403118736653    1.64791077851168
H         5.71984019013933    5.16914964134363   -0.74480062208247
H         4.82037297014069    3.27889903872077   -2.05625556723184
H         4.45085677383387    1.09277948697768   -0.97923196895298
H         4.96025161919440    0.78987972279690    1.41669170825962
H         7.67771538300369    3.98872987953980    6.03648070586925
H         9.22964528073221    2.10917839880282    6.44236338266100
H         8.39484631127563   -0.01565442458332    7.35255382873967
H         6.00832830408831   -0.30150467977091    7.88031012110138
H         3.69772742174182   -0.25611348417716    8.29123739407605
H         1.27781166322102    0.09761545231162    8.55959000546889
H         0.24805384925323    2.23772033106121    7.92484165343780
H         1.64303393221029    4.06813885852435    7.00938132563352
H         6.51045610672241    6.23697498530037    6.77169022162256
H         6.95199193124581    7.88929393424684    8.53516921256161
H         5.58338629726114    7.90053618812096   10.59457522620895
H         3.78502313576510    6.23908624497833   10.88378643673521
H         3.35198877822276    4.56323759392397    9.13899502364116

