58
CSD_code = KEGTIZ | q = 0 | S = 0 | Stoichiometry = C19H31Cl2N2PSi2W | MND = 5
W         3.67216475923206    0.67856216196904    3.51020571013964
Cl        4.05926366394888    3.00594836345803    3.49663715226968
Cl        5.90521992601123    0.57076052144930    3.88243137474212
P         1.40046440076052    1.71956783674251    3.52988215166207
Si        3.97935246965181   -1.65236639731708    1.28718330669326
Si        2.47445344930899   -1.43649946745915    6.03803943451644
N         3.50191345641566   -0.12368616387077    1.89132805906703
N         3.04425581761476   -0.29867976080943    4.89820887593623
C         1.05051197587873    2.59017887400868    5.10333639814913
C         1.07691970542517    2.94858903274454    2.22101732113532
C         1.61904538854622    2.63582662879398    0.97515786332587
C         1.43639331809913    3.49035418112556   -0.09525658471029
C         0.71703801231738    4.66421549238520    0.07317038658528
C         0.18222374971207    4.97934351904715    1.31060725944722
C         0.35769873238549    4.12496665922792    2.38651749768604
C        -0.01199622202162    0.58593105653040    3.32145397411176
C         0.28823713655006   -0.74028946305988    3.02761489872182
C        -0.73653936005429   -1.65251871609278    2.84753799520705
C        -2.05676820129296   -1.24354556275093    2.95464866285900
C        -2.35577382229326    0.08154663546775    3.22903023448169
C        -1.33654112969472    1.00004623349313    3.40771627154263
C         4.92949205727473   -2.48988370817499    2.73936494480253
C         5.12997499741677   -1.47908448063691   -0.23302218475379
C         2.50008505282441   -2.76531079873676    0.78768506508122
C         2.19506373709593   -3.17460174693338    5.27763355545931
C         3.73518480816989   -1.60161179863105    7.46972088726442
C         0.79698720228077   -0.86020386644020    6.77672357982076
H         1.29046544100331    1.90003956642016    5.91409508468160
H         1.69520238509276    3.46832481295159    5.16992099313369
H         0.00363033333577    2.88254683097493    5.17586851887324
H         2.19848196297277    1.71782535522270    0.87508952369242
H         1.86035686281989    3.24967617657206   -1.05853908450724
H         0.58071670971739    5.33780234643970   -0.75959088866097
H        -0.37031971920273    5.89807772193378    1.44197446049523
H        -0.05431493924071    4.38817910380187    3.34917953990424
H         1.33737602990474   -1.02087900035478    2.95537530455192
H        -0.51033654789540   -2.68358975762552    2.62255103894662
H        -2.85619528180308   -1.95658389928971    2.81927704824243
H        -3.38520449569523    0.39968970219181    3.30226926344771
H        -1.57186297141238    2.03617899094422    3.60594831764213
H         5.99810397187636   -2.30552514237097    2.66942371558207
H         4.57034839037790   -2.05884582625960    3.68147686141172
H         4.78442891658968   -3.56499973571184    2.77101758346947
H         5.57135913057385   -2.43537314299734   -0.49368809046185
H         4.58579915579767   -1.11896258855760   -1.10023481860747
H         5.93859325811775   -0.78123179882129   -0.03633080887731
H         2.83441482076421   -3.57203255060847    0.14417942572314
H         2.02622678556444   -3.21098617059155    1.65646648343015
H         1.74382960961649   -2.20340790324381    0.24851730209776
H         1.53334638081484   -3.76969383760369    5.89924586466520
H         1.75412244627908   -3.10955438973857    4.28825955206852
H         3.13080085757508   -3.71619275794217    5.18334461339227
H         3.44077111369667   -2.38584420003023    8.15959784471003
H         4.72274097690961   -1.84546035614065    7.08932135833070
H         3.82204120846231   -0.67801206440943    8.03403506450106
H         0.35113949450750   -1.65446861999012    7.36561036193606
H         0.92041266050485   -0.00396123095330    7.43340706583880
H         0.08889996818302   -0.58819090019835    5.99875741112656

