51
CSD_code = KEGTEV | q = 0 | S = 0 | Stoichiometry = C16H24Cl2MoN4S4 | MND = 7
Mo        3.01049863887777    1.33877473497181   14.49224445400314
S         3.78357970555935   -1.02093700420193   15.39298901326217
Cl        1.56552307722378    1.37947275867108   16.29327067473551
Cl        1.24527775165068    2.25203084802645   13.17504623809178
S         4.90500306482051    1.87818796883591   16.20538054065551
S         2.00752313515707   -0.79948827515496   13.02375398956356
S         3.43645336522317    3.88110016016242   14.75786842921266
N         1.20915056957253   -1.74646707878694   15.42309238557730
C         1.30905715299747   -2.01670580906459   16.84706209100110
C         2.23518661688254   -1.25143361918414   14.74911989627203
C         4.69696663663134    3.53251926308200   15.85706211229589
C        -0.07717954157432   -1.91990090386909   14.77874281068055
N         5.46054765801135    4.47764139122897   16.38730188096727
C         5.95307726285495    3.94368944377753   18.75280879964773
C         5.20965159513847    5.87278570110512   16.07791556115886
C         6.49721250391749    4.12492048384506   17.33904750567906
C         4.07931412207728    6.46278981246818   16.91606715661386
N         3.20981389085983   -1.29862072953939   12.16325773853007
N         4.14789072715504    1.10873065844896   13.19319508000028
C        -0.86847291404281   -0.61668204809594   14.71469662805385
C         1.79738503293059   -3.43848063917505   17.09801089808201
C         6.09294411390606    0.99832154101656   11.80399832482014
C         6.81816857341005    0.30781723192510   10.86405854677225
C         6.33486060678878   -0.90001338990417   10.36735368837588
C         5.13563949525439   -1.40962689076506   10.81086679312606
C         4.36529556914177   -0.74155532652138   11.76880101159727
C         4.86497725383396    0.50919642296163   12.27713374195674
H         0.32498696171425   -1.85822972153187   17.29169408192229
H         2.01068155799463   -1.30187843731081   17.28649800165137
H        -0.63083507592866   -2.67106630374388   15.34647220273237
H         0.09515241346578   -2.29809155075044   13.76474084858109
H         6.75209414793770    3.60994056048617   19.40831587578313
H         5.55070920279684    4.87505859998874   19.14116945734985
H         5.16897703194132    3.19171327021829   18.75391703456606
H         4.94274824462917    5.93911925135697   15.01916798373619
H         6.13544747563718    6.42633015930336   16.24494459357502
H         7.25381021511224    4.91141706233484   17.32011821030938
H         6.95113662274566    3.18684366194959   17.00699875480107
H         3.88516557674132    7.48221794523759   16.59576220080751
H         3.17262393626612    5.88001313267994   16.77936159552322
H         4.33695860904518    6.47277686665372   17.97138711023150
H        -1.83856266206820   -0.79669457374371   14.26012911097046
H        -1.01935860635876   -0.21366578067599   15.71361042363622
H        -0.34349551561598    0.12993353505601   14.11967590009015
H         1.85728036075495   -3.62299224371389   18.16657810957441
H         1.11934413385818   -4.16404742613343   16.65447992005545
H         2.78553135371050   -3.57058837099041   16.66497883538544
H         6.44053658342629    1.93725991221733   12.21024270112813
H         7.75880555697097    0.70306336456991   10.51240079047101
H         6.90326350628491   -1.44269165560597    9.62702969862048
H         4.75355270463583   -2.34360796411291   10.42948056771035

