95
CSD_code = KEGVOJ | q = 0 | S = 0 | Stoichiometry = C46H44P2PtS2 | MND = 4
Pt       -2.71997463037476    3.30217627739792    6.09634964731220
S        -4.38945481344212    1.70461007252987    5.89302595011785
S        -3.27901755343782    3.34336693603629    3.86267481912723
P        -2.52295962297356    2.96079617293978    8.38764338025647
P        -1.20198686566054    5.02643837802215    5.84319302052490
C        -4.51635180182312    2.00905086118929    4.08913993930256
C        -5.91381207031107    2.46943478426200    3.69355389451240
H        -6.16824090140767    3.36562485015901    4.27357186597795
C        -5.93426981891730    2.79783261575591    2.20133075521524
H        -6.92918996271305    3.15113576096545    1.91885926151286
H        -5.21823081558463    3.59726914008709    1.99346443432341
C        -5.56708308303390    1.54946086620778    1.40158561682152
H        -5.58235531457584    1.78536070545784    0.33072913629716
C        -6.57261726084601    0.43662017544980    1.69576025001467
H        -7.57595371670161    0.75471192303331    1.40091817224855
H        -6.31980713622268   -0.45527074569236    1.11660406083577
C        -6.54819583028416    0.11102574178720    3.18889733458707
H        -7.26893274869943   -0.68722069520810    3.40298124374946
C        -5.14817091693352   -0.34809357942965    3.59175123572806
H        -4.87018519884668   -1.24925121110818    3.03935474349411
H        -5.12633922522355   -0.58309180487971    4.65907130596550
C        -4.14395667555096    0.76413465500002    3.29307944678707
H        -3.13640960168201    0.44498707252770    3.58896903237629
C        -4.16529512310624    1.09314914737883    1.80100502948897
H        -3.87570073337498    0.20880092580304    1.22780325602476
H        -3.44265843199087    1.88605804498095    1.59130416031283
C        -6.91753052674192    1.35657147734840    3.99215235657664
H        -6.90203153031871    1.12745446396951    5.06074864600485
H        -7.92403338216136    1.69279268186699    3.73063534053225
C        -2.61204138416028    1.18063202291053    8.75838993329376
C        -2.08553871568259    0.31639938076539    7.80239490344710
H        -1.68739932118236    0.73145188747097    6.88064195474022
C        -2.10244708662644   -1.04899106478121    8.01233677739548
H        -1.69903605658678   -1.71680140219099    7.26532305380465
C        -2.65061338922169   -1.55892185876458    9.17827539639234
H        -2.67336633128149   -2.62636489529935    9.34233042002158
C        -3.18036160225743   -0.70241265204926   10.12937911837521
H        -3.61539905156939   -1.10303439278401   11.03361372962062
C        -3.16275466464741    0.66613751598064    9.92487365008185
H        -3.58776861843216    1.33050268722224   10.66358695979846
C        -1.05357337060201    3.47015917742151    9.33874476997818
C        -0.00392036567040    2.58697365310923    9.57202248710304
H        -0.09738692821456    1.55236009740572    9.27148643275990
C         1.15114313658439    3.02697695677637   10.19170642514685
H         1.95954288004385    2.33420988910710   10.37484720871211
C         1.27462766440458    4.35162280933887   10.57597856239458
H         2.18093880391263    4.69465197666767   11.05254242106824
C         0.22977407364448    5.23382120318401   10.35405390430689
H         0.31593954118936    6.26612392340482   10.66039645437452
C        -0.92797064709943    4.79761365405035    9.73916031924236
H        -1.74912771056367    5.48137474998023    9.57849364439413
C        -3.88742635796473    3.68026498722541    9.35198772874605
C        -3.80784435737704    3.92871555392496   10.71918159109135
H        -2.89879755217438    3.70326273662294   11.26006063885773
C        -4.89132794601881    4.47460640211757   11.38327560441418
H        -4.82716278551987    4.66720105207612   12.44466535996980
C        -6.05593856416310    4.77384829848569   10.69427433236488
H        -6.89685304845573    5.20245239447950   11.21977708531502
C        -6.14083096638498    4.52283126992105    9.33462001835963
H        -7.04922174830018    4.75209708878690    8.79707443868576
C        -5.05980831109281    3.97935494321796    8.66623004949634
H        -5.11124009913391    3.76919171581125    7.60288612952992
C         0.57060879934171    4.71619483869036    6.10449443257902
C         0.94479852857041    3.48355692548168    6.62302357587030
H         0.17143898727737    2.75111594945002    6.82837293008574
C         2.27766139200213    3.19790575166970    6.85317369410734
H         2.56401234119443    2.23852937334591    7.25795243100178
C         3.24408915433354    4.14400997425157    6.55581852172869
H         4.28664988038665    3.92691344322174    6.73621342581524
C         2.87883184579316    5.36384311162146    6.00698118203413
H         3.63772811548148    6.09058704164144    5.75522730480500
C         1.54687569159992    5.65123385385793    5.77315168160094
H         1.26075924804343    6.59000470433958    5.31794115102396
C        -1.63164628886600    6.38084565553622    6.97981432183042
C        -0.73115987509092    7.22829283018071    7.61102921183093
H         0.32978197656837    7.12105719138450    7.44057045900307
C        -1.19872397876517    8.19776847239816    8.48248861923781
H        -0.49801929099002    8.85728630891953    8.97406992337176
C        -2.55548560350030    8.32171410085757    8.73364638258234
H        -2.90965683521327    9.07462415497906    9.42236089218823
C        -3.45842872058630    7.47600939235572    8.10698863876566
H        -4.51606447801073    7.56456633583750    8.30741918702518
C        -2.99594148094271    6.51145611304214    7.23339553094211
H        -3.68376518497477    5.83348006767589    6.73372395651529
C        -1.18474329275447    5.84191686561638    4.22113815543693
C        -1.76654030557669    7.08118349809308    3.98460979178413
H        -2.21106124207851    7.63568666292372    4.79953827066090
C        -1.77647619153244    7.60126819886829    2.70239858244421
H        -2.22756877343059    8.56601075260798    2.51969930448509
C        -1.21951120599241    6.88737188640330    1.65472380909982
H        -1.23709262350602    7.29535862221528    0.65470958333460
C        -0.64816757115160    5.64599098421237    1.88642200493158
H        -0.22301265565212    5.08438694072514    1.06757022469145
C        -0.63258236274101    5.12193610556079    3.16372608201027
H        -0.20185182747760    4.14814643584050    3.35623789657449

