119
CSD_code = KEGWUQ | q = 1 | S = 0 | Stoichiometry = C55H55ClN5P2Ru(1+) | MND = 6
Ru        1.12591844254695    4.13844385674892    4.76952614775734
Cl        0.82678629481804    2.63455486826066    6.60552125691177
P        -1.10222146076835    3.79092281997102    4.13645835573937
P         3.37074422947421    4.38190093051909    5.39122038951651
N         0.21305457479344    6.12244258113883    7.02274500980832
N         0.61331547966321    5.77574575240391    5.80938195864451
N         1.94941872022759    1.67406652032713    2.92177057154827
N         1.71301443888459    2.94658209459578    3.21908048571943
N         1.34101119598795    5.45538540883821    3.40115648205315
C         0.00751713985984    7.45354742036509    7.12497322467662
C         0.30046703201715    7.98706216014322    5.88426759876486
C         0.67874045137118    6.90060837973030    5.07678386330065
C         1.09268121368833    6.74157179602531    3.69795949141929
C         1.23922461924088    7.72886348274385    2.73021195827123
C         1.64666401510990    7.35750228233975    1.45709939364410
C         1.90040359371813    6.02476955111787    1.16726393188773
C         1.73598911409701    5.08219652878283    2.17486919001872
C         1.93744843100852    3.65198850359476    2.09650517593458
C         2.32637873685080    2.77261598755976    1.07019515717748
C         2.32242724028446    1.51267224786923    1.63078229743491
C        -0.45380586369545    8.12611728297624    8.38381612564596
C        -0.65294178261220    7.10328283351892    9.50474664728360
C        -1.78466128826577    8.83371413593518    8.09688136889871
C         0.60854116013017    9.14889044838029    8.80761192611391
C         2.64053139053361    0.15685358868363    1.07433568792073
C         1.42212317036771   -0.75791921137509    1.26395274609005
C         3.84908892651618   -0.41570399742585    1.82901284523407
C         2.97107595749775    0.26776242194393   -0.41478829092526
C        -1.70958962199001    2.10603294155328    3.80506337697906
C        -2.90066585867074    1.93123460910389    3.10295751296026
C        -3.36884212270327    0.65690098716066    2.84777235933214
C        -2.66039337338691   -0.44900479928653    3.29375834677371
C        -1.48868975534346   -0.27765849018730    4.01065850795225
C        -1.01382576290832    0.99673424885290    4.26969072850810
C        -2.42427537947180    4.41954359800177    5.22147222696761
C        -3.58314823246241    5.02945572532914    4.75096430298571
C        -4.54855700783832    5.45511727613556    5.64599147692903
C        -4.37592683559527    5.26479437077079    7.00732690569175
C        -3.23881337113079    4.62749787330947    7.47677122350444
C        -2.26660804277097    4.20449840103716    6.58904671691977
C        -1.36797936609519    4.61895752273754    2.53986562072712
C        -1.15102337575493    3.92668084860107    1.35143790011030
C        -1.21501535094123    4.58754500228978    0.13851973118262
C        -1.48084629819569    5.94629527058037    0.10015250092110
C        -1.67546190027886    6.64619810847940    1.27993322965395
C        -1.60887769642493    5.99058787279476    2.49513940813968
C         4.44254332263071    2.92440577770452    5.60193466141984
C         5.81991073642868    3.10875366226956    5.71157492730727
C         6.65103309262214    2.01640744699536    5.86491398578590
C         6.11816186802952    0.73655973750051    5.91350583881373
C         4.74924952479701    0.55206956233355    5.82101455713201
C         3.91062104981934    1.64302883279689    5.66780015209581
C         3.73955549084908    5.29901429106144    6.92201041365029
C         4.77010305377128    6.22595175456770    7.04391525684580
C         4.98718833616103    6.85877208398226    8.25515725813852
C         4.19402526392832    6.56520674293698    9.35219326499525
C         3.18910869358221    5.61738951921203    9.24381689039125
C         2.96241295377284    4.98503564901094    8.03539340185863
C         4.23152079901882    5.28651360447337    4.06923225741984
C         4.83089319632049    4.58119530489159    3.02895244246697
C         5.36752650480906    5.25563019360086    1.94775445328774
C         5.30056645304167    6.63777727370971    1.88807983134073
C         4.68666432067182    7.34499330275995    2.90920311757669
C         4.14381083402572    6.67468284778249    3.98958770903736
H         0.09281236601735    5.41954671973996    7.73959334108525
H         1.83332078867580    0.95168486514521    3.61842527105094
H         0.25162919858672    9.01473762201396    5.59129447727617
H         1.03761090732973    8.75894404603065    2.97359134137668
H         1.76645556046182    8.10627603594900    0.69077449955803
H         2.21796022284499    5.71760243959795    0.18513353998453
H         2.57121483923673    3.03997363495651    0.06468787478838
H        -1.41232824525984    6.37188661880280    9.23552420845295
H        -0.98668787604794    7.61412140690939   10.40419227654972
H         0.27898512527934    6.59246620735165    9.73780502003987
H        -1.66649844948310    9.57779917233911    7.31412678268517
H        -2.14039357246501    9.33290062628423    8.99389101635671
H        -2.53692044375364    8.11429996298074    7.77915423029889
H         1.56224093427880    8.65551913185267    8.98485278900662
H         0.30026578451219    9.64585003190995    9.72322538724552
H         0.74812837749013    9.90301334505564    8.03804893183119
H         1.19339072560757   -0.90881613210483    2.31641014552849
H         1.61930318715069   -1.72915682804183    0.81861599042363
H         0.54520246308567   -0.33211032319956    0.78094289852995
H         4.70892942201584    0.24282588661918    1.72754930546726
H         4.11251976112248   -1.38664478117409    1.41857325773233
H         3.63664834300241   -0.53986838091973    2.88849034881785
H         2.12813883739753    0.67619328825005   -0.96660834457214
H         3.19751469908334   -0.71600240545468   -0.81658327931376
H         3.83627878416116    0.90686438980721   -0.57089928275702
H        -3.45427852129599    2.79284897422102    2.75651637532743
H        -4.29137104667206    0.52389625417208    2.30292374564787
H        -3.02973843767266   -1.44264503255080    3.09077260164770
H        -0.95050419521947   -1.13895675501969    4.37854257808762
H        -0.12572803078157    1.14082903850553    4.86956471052984
H        -3.73650561336106    5.17459782293313    3.69122021325816
H        -5.44403132843010    5.93231488950781    5.27686996901051
H        -5.13370958738563    5.60044663487043    7.69898725695325
H        -3.11763987220421    4.44883205310420    8.53535940882847
H        -1.39014174378074    3.67635414084929    6.94290366687250
H        -0.94413078299352    2.86469603741049    1.37975941068982
H        -1.05679171673371    4.04089419434806   -0.77901654925166
H        -1.53491483467479    6.46028520865023   -0.84716020171717
H        -1.87670809796319    7.70673660371250    1.25318888381531
H        -1.74976158170454    6.54126695515949    3.41683967668268
H         6.23462408048843    4.10660628029090    5.67413331700073
H         7.71747782601327    2.16168923100708    5.95088134912919
H         6.77148281748622   -0.11411515567282    6.03370856377747
H         4.33370518358613   -0.44329197433198    5.87971667539715
H         2.83790383332191    1.51103357189430    5.64174310017802
H         5.40469955814560    6.45704871650887    6.20039309423061
H         5.78524141075983    7.58077540372644    8.34362685302161
H         4.36947264609435    7.06396843637105   10.29336400214031
H         2.59176867333158    5.36279782909322   10.10734018797632
H         2.20155740400161    4.21943377003693    7.94900805644848
H         4.88538958740717    3.50117928702892    3.07611901423762
H         5.83947631381566    4.70175014837960    1.15009080291230
H         5.72486128320460    7.16398078050680    1.04684228160768
H         4.62814908378953    8.42217754562955    2.86195633472333
H         3.65153263319461    7.22852290007619    4.77908910096841

