86
CSD_code = KEGWIE | q = 0 | S = 0 | Stoichiometry = C26H52O3Si4W | MND = 9
W         1.02691593854569    1.15602774252297    6.43710446320076
H         0.61279672620078    1.99793597192485    5.10252654142681
Si        2.50416694542832    0.12054635305642    4.74267744730150
Si        2.47401481875232   -1.30447130404191    1.90688467912502
Si        2.14317187372349    1.87261201525532    2.16441206318178
Si        4.94816605494339    0.49713528582784    2.89967801896740
O         1.95839992411991    4.01099285232526    7.30072513696666
O         3.76752234086993    1.55764753254242    7.90702783180471
O         3.53478255443101   -1.07046678465871    5.16621858639030
C         1.63424888293926    2.96109383133370    6.91387366026343
C         2.77251185995171    1.37556983068017    7.31391556559312
C         3.87180357402535   -1.63284147745863    6.41366009058462
H         3.14074254097745   -1.29540743386730    7.16241628988159
C         3.83220155567768   -3.15561559125079    6.31013117513400
H         2.85950124860701   -3.49235844683682    5.96095067946451
H         4.03051064573476   -3.59921485521074    7.28237791257275
H         4.58411946707069   -3.50213521653816    5.60609535029519
C         5.25461418282016   -1.15360010047080    6.84301965085583
H         5.99899928212065   -1.43590138872261    6.10385745937947
H         5.51680556993085   -1.59822543172155    7.79936196046663
H         5.25551262415342   -0.07356221228620    6.94850788661477
C         3.00716502541324    0.28103537537761    2.88833480192513
C         0.59067407309669   -1.32140535393855    1.58241142291498
H         0.28873615107619   -0.54223986789635    0.89449718446040
H         0.02631370479780   -1.18604872825746    2.49861700455169
H         0.28865989123786   -2.27169218647878    1.15243482969502
C         2.78355878023820   -2.96277581882124    2.80308315526268
H         2.14114835496671   -3.05948853358392    3.67113570168514
H         3.80620483505225   -3.06448319699679    3.13912505850784
H         2.56935088900702   -3.79934707057941    2.14379209856099
C         3.33979546981861   -1.43134750171010    0.20798159694036
H         2.91200337075072   -2.24225439081848   -0.37402807914410
H         4.40087395085472   -1.62837920103197    0.30804754630650
H         3.22869774470791   -0.52281664517709   -0.37019694026472
C         5.90815418883551   -1.15332485920182    3.02668105798919
H         6.96642804971682   -0.96185607529404    3.18221045988392
H         5.81617045390173   -1.75030546663711    2.12610426455238
H         5.55519524490465   -1.75034220602125    3.85661394498785
C         5.51456032361443    1.61719566038177    4.34620049372414
H         4.69419771851151    1.91001050995980    4.99452571148988
H         5.97899355530694    2.52758666186658    3.97971570136482
H         6.25170587955560    1.11265269724581    4.96253908151445
C         5.64069972006514    1.31014006994672    1.31454326098731
H         6.72557146397160    1.31901228174707    1.35767845290380
H         5.31410718282206    2.33793408502418    1.21166551720168
H         5.35929733144549    0.77532241635349    0.41582612609448
C         0.23951863747979    1.89542704522384    2.34506020096257
H        -0.08029303355114    2.85381263871544    2.73970875284855
H        -0.11600718580131    1.13676464585083    3.02876391368750
H        -0.26282400811297    1.75343990850772    1.39368115273413
C         2.39115712360389    2.09530065751955    0.27858197412675
H         1.99944899120982    3.06190200561631   -0.02466570298811
H         1.84907555911249    1.34119941371281   -0.28221012364077
H         3.42680316278624    2.05650272243637   -0.02936972516144
C         2.81717626776208    3.40655835642741    3.07000408597761
H         2.34439338510374    4.31047448460335    2.69870467442920
H         3.88671369000028    3.52631006980144    2.94681679969085
H         2.60553400144301    3.34031596485579    4.13479543037833
C        -1.12522008813099    1.26681129325907    7.24352202141861
C        -0.28159066759327    0.82676476839077    8.30418398986437
C         0.23605661335677   -0.45758366211558    7.95888475174262
C        -0.28270022390203   -0.81453155062837    6.68007922892449
C        -1.11692755524155    0.25458280519598    6.22882774485844
C        -2.03706319813461    2.45785257510772    7.29317524990480
H        -2.30990811160023    2.78438215272485    6.29122580618046
H        -1.56259105902760    3.29492989397984    7.80353910811512
H        -2.95346968135442    2.20877754989320    7.83483968379559
C        -0.13318095768897    1.48600013628134    9.64275752772507
H        -0.90820134925377    1.12970530317939   10.32652214051160
H        -0.22721856128835    2.56793885924200    9.56108332671476
H         0.83609646211481    1.26243997503291   10.08726866446757
C         0.95830111296262   -1.36546387053418    8.91338457153180
H         1.77725745345774   -0.85212359637273    9.41831070961942
H         1.36113570145345   -2.24074854267889    8.40656981321341
H         0.26334991086037   -1.71410840057750    9.68167115403344
C        -0.19005626253091   -2.17426865424326    6.04546768938657
H        -0.96835152524143   -2.82750830130503    6.44916096411585
H         0.77247751110793   -2.64319884741532    6.24413104781546
H        -0.32179200962759   -2.11967778130244    4.96552528484915
C        -2.07905816142751    0.17536437896927    5.07426893353583
H        -1.65542910052873   -0.42673936971083    4.26514801491086
H        -2.27252961182598    1.17309575831713    4.67292588235337
C        -3.40232764493378   -0.45196913539114    5.52246217025649
H        -3.23804132712357   -1.45690093345522    5.90551128790945
H        -4.09709009871367   -0.51000537088482    4.68756364298287
H        -3.85779612589294    0.14393082594840    6.30995625264137

