118
CSD_code = KEGXIF | q = 0 | S = 0 | Stoichiometry = C55H53N5O2P2Ru | MND = 7
Ru       -2.15079495215803    2.63202370439211    4.01127018283874
P        -0.47095311263805    2.46316212278154    5.63458291438662
O        -1.91262634206759    0.74491821368276    3.39525980312303
N         0.25244632384137    2.40364629314399    2.06496279156405
N        -0.65104115099485    3.11147032961519    2.68865737465208
N        -2.15065230848051    4.64860584858252    4.01135721817203
C         1.09767031795329    3.25029827164459    1.44917389172383
C         0.70657646345494    4.56233554445839    1.69210244535584
C        -0.42382284311625    4.43665173401248    2.50484067848378
C        -1.28055206466935    5.31727551625989    3.22981812563962
C        -1.26305671466242    6.71208277399804    3.20761249930170
C        -2.15075194839917    7.40605750227284    4.01124647765362
C         2.26975593361353    2.72693075112789    0.66810170419810
C         3.19157148822367    1.95303831718381    1.61876338082762
C         1.75687969950684    1.77797435203116   -0.41964695078094
C         3.04691720754522    3.87680952020299    0.02605847950643
C         0.53280741465595    0.94844908720004    5.60123329082394
C         0.85256734193486    0.36510260380881    4.37709407350350
C         1.62321279644756   -0.78431544130422    4.34565048393406
C         2.08385167408037   -1.35205420309843    5.52151921897932
C         1.77182657541106   -0.76788883677297    6.73847016833598
C         0.99715101196141    0.37649936139070    6.78330391727190
C         0.74391551620875    3.80600290682068    5.47501599230573
C         0.34449404695492    5.10427090817337    5.78965563706099
C         1.19099820090475    6.17030538165609    5.55437456814624
C         2.43776675873808    5.95268858628164    4.98971353953391
C         2.83795745364180    4.66583205711888    4.67268848809107
C         1.99677694440975    3.59374918207043    4.91185075689611
C        -1.03239093983445    2.51841581742658    7.36000367526265
C        -2.06519870914769    1.64574370804207    7.69881548644311
C        -2.50623144905562    1.57662299271715    9.00674538723099
C        -1.93653365543084    2.38550704694732    9.97740356135025
C        -0.91063913919662    3.25314310922545    9.64196395755539
C        -0.44874492040518    3.31559477455435    8.33877856236930
H         1.15877240898664    5.47255565879845    1.35628039978319
H        -0.55743798523570    7.22033085969838    2.57173002653689
H        -2.15074699285995    8.48591096968686    4.01126219890792
H         3.58401706216342    2.61458801111682    2.38800819379678
H         4.02834973566964    1.52554323780394    1.06937121583930
H         2.63892580091575    1.15171253227760    2.10071002650823
H         1.18203380179859    0.97838409747703    0.03897833791390
H         2.58942829427857    1.34777772203674   -0.97344832726004
H         1.11469639325163    2.31514482626883   -1.11470187851820
H         2.40931290348798    4.44018571644168   -0.65182288386542
H         3.88937531567376    3.48507395781522   -0.54067466076153
H         3.43021985072123    4.55360505579499    0.78674359690092
H         0.49129335593896    0.80657673369453    3.45636146954764
H         1.86170150492884   -1.24144740640280    3.39622160216994
H         2.68349319789420   -2.25034652163449    5.49244925597754
H         2.12994889375506   -1.20750752364677    7.65832556247846
H         0.75221355226250    0.82222415432560    7.73702420695765
H        -0.63464512281952    5.27185297799356    6.22298718746097
H         0.87432765106617    7.17322279859116    5.80229332228067
H         3.09513758065861    6.78742961023028    4.79571447848183
H         3.81051915938890    4.49742388607291    4.23330982141333
H         2.30479282402286    2.59013490272112    4.65668123262743
H        -2.50829784238493    1.02821536699036    6.92832867381513
H        -3.29391513529048    0.88864209303691    9.27262071762401
H        -2.28760362869929    2.33607559300853   10.99797854443950
H        -0.45904751763570    3.87755577463122   10.39956000008658
H         0.37065591369521    3.97489574105442    8.08888920030881
P        -3.83074547507527    2.46313062060999    2.38776436052921
O        -2.38831895310626    0.74486492595450    4.62714348088133
N        -4.55388600201802    2.40370611129330    5.95767740671413
N        -3.65032380483028    3.11151522931062    5.33408533224427
C        -5.39908860455191    3.25036623906177    6.57346322774267
C        -5.00800951935731    4.56239668433183    6.33048324789695
C        -3.87759990330713    4.43669341031884    5.51776635888769
C        -3.02085106855819    5.31728575105593    4.79278278010159
C        -3.03841994645964    6.71208660269878    4.81490353323461
C        -6.57116416989835    2.72699712426491    7.35455385639047
C        -7.49309723126848    1.95314771951433    6.40397434620946
C        -6.05835385740295    1.77799545659332    8.44228610126422
C        -7.34830945115371    3.87681876612365    7.99669969187188
C        -4.83435359649775    0.94834885518795    2.42132786059691
C        -5.15433222276301    0.36519699263808    3.64550976245727
C        -5.92478141097791   -0.78434613420168    3.67697463189186
C        -6.38516821961785   -1.35226997572375    2.50109767172270
C        -6.07319053431950   -0.76809359543277    1.28413136162777
C        -5.29856038775539    0.37630433737825    1.23926902482569
C        -5.04546906721729    3.80605971197671    2.54756473184089
C        -4.64603372536001    5.10431231479520    2.23289949020043
C        -5.49252805659274    6.17035226423532    2.46817819104086
C        -6.73924741228410    5.95274943085659    3.03297092616749
C        -7.13947026005492    4.66589131878939    3.34993804742424
C        -6.29832234617645    3.59380492186522    3.11072603510999
C        -3.26913210324007    2.51851278673746    0.66242897070412
C        -2.23631463160952    1.64587096825965    0.32360183545832
C        -1.79522548422043    1.57686359243986   -0.98430303070194
C        -2.36490575223812    2.38581050865954   -1.95491387260679
C        -3.39106013485542    3.25316400130892   -1.61950656057886
C        -3.85295182845531    3.31555048627954   -0.31632883195421
H        -5.46021452971093    5.47261416675817    6.66628523546630
H        -3.74403519662105    7.22033184710995    5.45079815242822
H        -7.88549842933706    2.61473249961212    5.63474520446461
H        -8.32990847385006    1.52566390272907    6.95333915769743
H        -6.94048063423951    1.15182596203591    5.92199845580232
H        -5.48354763676163    0.97843012942802    7.98357990244783
H        -6.89086855757746    1.34777165864592    8.99612368899314
H        -5.41611413787990    2.31513084231433    9.13731507694825
H        -6.71063519340087    4.44017146288173    8.67452634670823
H        -8.19076298315383    3.48514135563032    8.56349164708691
H        -7.73160643273101    4.55362493399953    7.23602667498203
H        -4.79303376284979    0.80666152748377    4.56623491552123
H        -6.16334434747433   -1.24139474527850    4.62642255647914
H        -6.98497834288979   -2.25044507565422    2.53019116833812
H        -6.43123874440855   -1.20776171768213    0.36427501995111
H        -5.05357627788934    0.82198274863847    0.28553979984414
H        -3.66691140497603    5.27187105713304    1.79951748306614
H        -5.17585753571556    7.17326512625144    2.22023253916529
H        -7.39665703535407    6.78747108224570    3.22686996906389
H        -8.11202397435564    4.49748086994994    3.78930777075716
H        -6.60630779360805    2.59019555878656    3.36595286613659
H        -1.79310521585268    1.02843637595688    1.09409962630381
H        -1.00758154086618    0.88885873520356   -1.25020719444468
H        -2.01411219674984    2.33613524413049   -2.97556765593174
H        -3.84274367612517    3.87753104110290   -2.37708785042200
H        -4.67231467922965    3.97487532003285   -0.06638382930026

