35
CSD_code = KEGYOL | q = 0 | S = 0 | Stoichiometry = C15H15CrNO3 | MND = 9
Cr        4.83836551545810    7.59456229641104    1.99568284895720
O         6.43866979403010    9.12378114849496    3.98608450963243
O         3.09236832740760    9.97024134777788    2.38084408472412
O         3.34792921419208    6.99731338157008    4.49985846506277
N         4.84154722539578    4.15712742616093    1.85868086601693
C         5.86261882349394    8.51816866616953    3.18526674864227
C         3.77112698543707    9.05424871852684    2.17863679709082
C         3.93850540218435    7.17317641516022    3.51594014373231
C         4.03613109900530    5.94492737751833    0.66744059958240
C         4.15632067700855    7.09626697178350   -0.09886976257149
C         5.41873819950219    7.72615920343639   -0.19193790257035
C         6.50795941549852    7.20735515093413    0.50686628538715
C         6.40381769629652    6.01662502386313    1.26203247999873
C         5.16663575486222    5.37193718978419    1.31327691699075
C         3.38734592115661    4.04787443224766    1.92000230082124
C         2.85537615453584    5.02600397409963    0.85418549956896
C         1.58396738671728    5.74597875070530    1.29001237157663
H         0.79863417411266    5.02586832562581    1.50745375388035
H         1.23188704588327    6.40953438539138    0.50405846129880
H         1.77681934018610    6.34077028390535    2.18126479996275
C         5.60286041007878    3.56814615327025    2.94355722042434
H         5.24034943218141    2.54586517501524    3.08159029292841
H         6.65122879078850    3.52041105645925    2.63160531681399
C         5.47804759272486    4.34684573065640    4.22360725259893
H         5.84700818537298    5.36445607916122    4.18644325232907
C         4.91927878599840    3.87415130778731    5.32079601265790
H         4.53616225565383    2.86726367891242    5.37646959287504
H         4.82896812233299    4.47159878225340    6.21076142109819
H         3.32002233019990    7.46591438392585   -0.68070034447864
H         5.54462708506677    8.58497624750443   -0.83899865808384
H         7.48276722290494    7.66895386708651    0.39865348512973
H         7.28784552818416    5.58226133772215    1.71018002299894
H         3.02987982255768    4.34573851300106    2.91556910545080
H         3.08970946620636    3.01336574057597    1.73426336523259
H         2.66048081738555    4.48843147710227   -0.08387760576177

