61
CSD_code = KEGYIG | q = 0 | S = 0 | Stoichiometry = C24H29Br2IN4Pd | MND = 4
Pd        3.29761914578732   12.65428604658651   12.82586325406950
I         0.29763190065310    7.69060355463471   10.76089355802165
Br        5.05736911385455   11.98158443614300   11.27580715481297
Br        1.67125964201260   13.42572135982726   14.47013962099226
N         5.03952699974521   14.90411983362127   13.60708557642908
N         5.35428116617082   13.11085857685141   14.81689338695296
N         1.95758291942909   11.45725994737203   11.78670521038571
N         1.60707749207437   11.69891076470352   10.51561515723640
C         4.64551765904774   13.63866548002397   13.80631228979703
C         6.02842790445012   15.21852661613137   14.51714612367335
C         6.76462889066154   16.37101610005269   14.74759493232289
H         6.62793667663470   17.26262038654759   14.15812431945064
C         7.69270512922240   16.34599902993124   15.77036434218412
H         8.27915737355650   17.22908180348332   15.97216061211672
C         7.88590125677499   15.20803913051508   16.54727505121324
H         8.61773047613889   15.22805324277284   17.34003418965008
C         7.16124287622153   14.05290275008799   16.32700660165686
H         7.32428801675971   13.18345790490507   16.94216471412123
C         6.22873310014356   14.06262179374925   15.30024324409715
C         4.46537241405577   15.73221019028595   12.55940872983742
H         3.71618772122905   15.08461818068223   12.05774442730112
C         3.74173410896126   16.93440593985965   13.15875737302108
H         2.97519126238741   16.59695556395781   13.85373266351844
H         3.26668400903331   17.50731984128817   12.36720680246420
H         4.42959274603959   17.58551771468693   13.69073329430728
C         5.52349973485670   16.11181122139436   11.52776423685358
H         6.28761922433535   16.75312734731340   11.95782387222732
H         5.05216081459825   16.63515902645167   10.70035458218327
H         5.99872999044063   15.21338711776412   11.13888945018749
C         5.17585703894155   11.73258897809790   15.25457673372864
H         4.41042204313819   11.30056149642595   14.56910350897728
C         4.62737863614265   11.68825033794180   16.67801866269642
H         5.33521704157324   12.10914029615927   17.38672566380103
H         4.42289868470222   10.65893163743098   16.96036436558371
H         3.69945825193239   12.25462935752654   16.73639076607885
C         6.46512250072941   10.93669915093705   15.07292751358481
H         6.80026145080985   11.00516759430355   14.03956817784606
H         6.28315706834423    9.89125360092759   15.30749422509840
H         7.25571567777687   11.30436919356772   15.72059668072508
C         1.03507286010717   10.61035652521850    9.95443116001376
C         1.03997280653241    9.63850428105076   10.93874570085687
C         1.64262946411309   10.20632544380039   12.07192252941362
C         1.90187723068553   12.95977405116887    9.95545705667495
C         1.58322308022658   14.10417768320335   10.68699949208106
H         1.03808796673769   14.02480730837374   11.62344903130918
C         1.89776105487570   15.34867795637386   10.16333716663116
H         1.63283581479404   16.23768562608564   10.71598662208708
C         2.53797660993950   15.45016774936418    8.93893433734238
H         2.78580785351466   16.42189812459862    8.53917462637500
C         2.86132804431521   14.30734195557411    8.22641661250520
H         3.37238840584742   14.38490154572928    7.27934298321291
C         2.54637054026322   13.05759038650217    8.72884291419483
H         2.82917981321678   12.16465886730338    8.19458675373394
C         0.49700581998838   10.56335288172367    8.57468661166962
H         0.23547320418789   11.56111846804689    8.22832615885598
H        -0.38835848912286    9.93038231945091    8.54957518461221
H         1.23060255922371   10.13651330719797    7.88960333857055
C         1.95353835159097    9.59763753965406   13.39033760311052
H         2.13450818274174   10.38750290574364   14.12862265598202
H         2.84361384545627    8.96933785556188   13.31016636147223
H         1.12612682139977    8.97725467339651   13.72974403012989

