61
CSD_code = KEGYEC | q = 0 | S = 0 | Stoichiometry = C24H29Br3N4Pd | MND = 4
Pd        8.38827096516537    3.20422491228263    4.58886400667837
Br        6.60817380295967    3.79964716540500    3.03247468364200
Br       10.04490651229517    2.50943727518326    6.24054339492681
Br       11.37533182527286    7.87586996078770    2.40583225291435
N         6.37577851564737    2.83535140245129    6.63836805840873
N         6.65725383929607    0.99143193880601    5.49876724421035
N         9.71290447854337    4.35721019506492    3.48713003520860
N        10.08109078310641    4.07526195916836    2.23015844306492
C         7.06035529373978    2.26222533682290    5.63593044785923
C         5.50610268122375    1.91006829942780    7.17815950001386
C         4.59229403216644    1.96932960658063    8.21994456178778
H         4.44317516312702    2.86606091654521    8.79837323766321
C         3.86722672637615    0.82841573489587    8.50379426637154
H         3.14972813973808    0.84664972988477    9.30959116005218
C         4.04203083948743   -0.34344740452781    7.77439129004342
H         3.45652520706486   -1.21429406106305    8.02593939532876
C         4.95020284201817   -0.41727660391397    6.73617785295638
H         5.07209847789155   -1.33441519122805    6.18383064944940
C         5.68592021855445    0.72078357442079    6.44138604630822
C         6.57331677580577    4.22855720308044    7.01662671649271
H         7.33910986894314    4.62185861986422    6.30839967650515
C         5.29028036601451    5.02905483397709    6.81181822795421
H         4.94944744441618    4.92571623308033    5.78314986620376
H         5.48142348689573    6.08075456209551    7.00801946547516
H         4.49983461583945    4.69102056476256    7.47575003114870
C         7.13392678896292    4.32696703555263    8.43256656507533
H         6.42514929361198    3.95154894080039    9.16536107325280
H         7.35884565976272    5.36417432614843    8.66627392809395
H         8.05241147614779    3.74770288093113    8.50919975377705
C         7.20866330364335    0.11582458550667    4.47780355568779
H         7.94726099700757    0.73907744251993    3.93176126838509
C         7.94364991733237   -1.05884213393067    5.11693871663889
H         8.72533935625344   -0.69124524242158    5.77898993078661
H         8.40084021628313   -1.66973250286752    4.34343978568720
H         7.26631997789656   -1.68255579106849    5.69345009032262
C         6.12915059585739   -0.30915950010099    3.48685183190706
H         5.37421748976482   -0.92967376692466    3.96132579773687
H         6.58286089723585   -0.87002257821788    2.67429476470933
H         5.64593585754027    0.57119591070360    3.06775994333461
C        10.03882563584718    5.61140322516570    3.74555392886639
C        10.66839884402129    6.13950163712756    2.60652292260748
C        10.67747605331999    5.13960889395705    1.64822990959923
C         9.70359810743878    6.25953320412884    5.03936692649550
H         9.74542859203187    5.52179269010432    5.84730825887517
H         8.69483043384229    6.68045021098931    4.99044421347648
H        10.40197504912745    7.06482245402652    5.25462978854025
C        11.24449539019428    5.14932611073833    0.27932331496808
H        12.12445527188918    5.78981701397278    0.25668547773338
H        10.52352576180606    5.54966543802857   -0.43449556578184
H        11.52135195731431    4.14393202782377   -0.03094968345648
C         9.76995879389055    2.80583400575032    1.69862296752044
C         9.14579286978808    2.68869727899015    0.46346486257482
H         8.89824243976174    3.57248184483115   -0.10244827993706
C         8.80522487532621    1.43352327807402   -0.00782266119486
H         8.30955956856324    1.34140985816916   -0.96173183199659
C         9.08322846727228    0.30430135189812    0.74430302603673
H         8.81412049745412   -0.67171138849905    0.36971679985864
C         9.70577291911070    0.42500260450023    1.97597505374624
H         9.93738984469531   -0.45428218539089    2.55838916346945
C        10.04538912441213    1.67558371659034    2.46858128041479
H        10.57910477405200    1.76775035849807    3.41089261174521

