53
CSD_code = KEHCAC | q = 0 | S = 0 | Stoichiometry = C18H21HgN3O8S2 | MND = 5
C         1.98969175178105    6.19822295741685    1.11041569419936
C         2.36456452661332    6.30175230532456   -0.20843009878772
H         2.52212863115294    5.41975345507734   -0.80836947850705
C         2.53376490081850    7.57939354743540   -0.73173306188378
H         2.83200013211809    7.69528242813227   -1.76267114916140
C         2.32402829951582    8.70368825632735    0.05434155072658
H         2.46160557173090    9.68482451851712   -0.37482991294233
C         1.94076709739448    8.58395440904428    1.38228878904192
H         1.77346538349290    9.44653698609966    2.00820684124839
C         1.77656504945488    7.31105623488619    1.90479800721233
C         1.37927341046051    6.97205399324462    3.30157687841239
C         3.37458463586490    3.71897019518525    9.30680271267161
C         3.97348571671497    3.40454994556711   10.50372109862909
H         3.52175749921855    2.68967944834410   11.17280648643675
C         5.17186513029150    4.03834215123009   10.81605120441733
H         5.66495956868436    3.81297111571901   11.74975048933172
C         5.73992746070716    4.95481510943616    9.94266667988503
H         6.67099727746415    5.43381646806637   10.20686943703964
C         5.12854373226564    5.26363522602329    8.73617186879070
H         5.55596963032747    5.97317149747629    8.04534614433454
C         3.93321464871543    4.63374761029812    8.42789766626867
C         3.11670398949861    4.80500058230525    7.20773160763154
C         0.43436682789579    1.80091929496847    4.24361239895287
H        -0.17689626882281    0.88816909185551    4.28335130874173
H         0.51166308659222    2.13080095767556    3.20250981772422
C         1.84405817585283    1.48279520922052    4.75685364429715
H         1.82872098407732    1.20661784949945    5.81580332399178
H         2.25322408618282    0.64776757045468    4.17459055801675
C        -1.36974802832669    3.37139402247680    4.24921575356724
H        -1.04813119665043    3.74937870037039    3.27991448772681
H        -1.85303742794490    4.17435876296223    4.80476678979372
H        -2.09801794210659    2.56606285366696    4.09058943520044
C        -0.69650089634734    2.36774939583927    6.29501229289345
H         0.12222688625754    1.96690264222218    6.88581626817358
H        -1.44438519974740    1.58060057329096    6.13781410944041
H        -1.14452805173688    3.17820409592946    6.86803065678917
N         1.35133907306222    5.64735312444089    3.51765730951709
N         1.98692352631402    4.11072397264321    7.21941467718602
N        -0.21343174182397    2.87978151130436    5.00696031990737
O         1.08213808790721    7.82368079440250    4.13053390509167
O         0.45946314371116    4.10111012500298    1.74051402858073
O         2.80230456620320    3.92976834317424    2.31903655830243
O         3.42153647767718    5.50795083446836    6.23560375522969
O         0.70082088832442    3.45582899721661    9.31879545958906
O         1.97931780703392    1.75765629908259    8.13886814288018
O         2.71128121117867    2.59978289887206    4.67287757696176
H         2.89440193808484    2.80452908929772    3.73293443216641
S         1.65584263866279    4.78909031070346    2.15097651328082
S         1.86258331230777    3.13544855333968    8.54314167099418
Hg        1.45209039339400    4.61602048901940    5.31518484665584
O         0.13325701751077    6.49470838187797    6.24164204818297
H         0.49928553063253    7.17944205795177    5.62655638489902
H        -0.82433294960833    6.57478475561985    6.18521207026957

