15
CSD_code = KEHDIL | q = 0 | S = 0 | Stoichiometry = C4H6Br2N2Zn | MND = 4
Br        8.88397817697489    2.55593311025337    3.09445819480613
Br        4.53697287213927    2.54937833431401    4.22279128965417
Zn        6.84450491384064    2.55321426378467    4.30750336251654
N         7.33753089438727    4.18728727675780    5.57243844719267
C         7.90428570679392    5.17330203063414    5.70245422466688
C         8.61189259492341    6.39742586472925    5.85416237466915
H         7.90705696554935    7.22869053236030    5.86030277997714
H         9.30371825184544    6.51058543870660    5.01848996833009
H         9.17107409356103    6.38407101795066    6.78939623958925
N         7.34260814355502    0.92027194218778    5.57211079169458
C         7.90556553874812   -0.06807575433624    5.70060635263775
C         8.61126713307833   -1.29298542720666    5.85446991941089
H         7.90494289923050   -2.12291262675498    5.86175865553902
H         9.30277081436558   -1.40863887484681    5.01905956432480
H         9.17053100100974   -1.27914712853584    6.78959783499154

