55
CSD_code = KEHDAE | q = 0 | S = 0 | Stoichiometry = C26H22N6Pt | MND = 4
C         7.26184041509560   16.03857466002248    1.54462914215261
H         6.77324771229135   16.91656241650657    1.93965484799647
C         8.54022824804247   16.15515979337948    1.05409450223558
H         9.03076461204280   17.11454242619694    1.07443892628846
C         9.17185356657484   15.02738397236318    0.53257274772904
H        10.16597357508765   15.08416162015527    0.11599440679968
C         8.49100225378554   13.84316255558560    0.59110742608936
H         8.91654848626885   12.91585327126908    0.24426046243094
C         7.18924514274151   13.76831761782450    1.13827228516079
C         5.60184324416270   12.11586147377021    1.69135193378338
C         5.22771119503927   10.70517350167308    1.84507107904457
C         5.88461193098351    9.52505501248693    1.56398777479004
H         6.87598390945991    9.53371020312443    1.13932206731552
C         5.22150198493598    8.33777525660952    1.84790410380571
H         5.70701005951271    7.39529640908524    1.64005080931167
C         4.58222852731548   16.94984299920408    2.11977169154896
C         4.40867720925102   17.68877284118879    0.94714248099014
H         4.26716902183616   17.16780789297185    0.00403753773246
C         4.39745716110510   19.07191920162636    0.93938533424177
H         4.23280676845017   19.58473389078751    0.00430671337278
C         4.57855887410254   19.79943429076743    2.12084753754033
C         4.70493285634857   21.92102916432514    0.89463234663239
H         5.42586215417413   21.43913963696204    0.23132438665076
H         5.07187469841667   22.92239568172339    1.11624076812093
H         3.74922431588685   22.01401686015029    0.36172853599299
N         6.54839313453811   14.89645389120293    1.56927171058476
N         6.74249499759856   12.49857146917328    1.21289795675056
N         4.58268188624065   12.88957376321978    2.11983378798391
N         4.57336380478499   21.17855302351789    2.12057295123928
Pt        4.58235552031256   14.93667152591989    2.11871843280251
C         1.90282397104293   16.03819588440871    2.69371942646901
H         2.39097113671986   16.91606619991850    2.29776815787303
C         0.62419349490637   16.15461499721089    3.18365854510987
H         0.13329178821028   17.11380336065752    3.16239727909009
C        -0.00729735275449   15.02693047600598    3.70541212947992
H        -1.00148643318981   15.08366000752642    4.12183131511960
C         0.67397378399606   13.84290936935231    3.64778927214773
H         0.24865033356808   12.91567041695319    3.99506438379367
C         1.97596632731338   13.76820148475216    3.10119246728801
C         3.56381299476446   12.11585230232642    2.54904182363398
C         3.93841266669305   10.70517200119986    2.39640363652715
C         3.28187424775780    9.52506035201757    2.67837227940858
H         2.29048705727568    9.53372925630527    3.10299871269843
C         3.94533724689988    8.33777528393611    2.39529704172817
H         3.46012752212612    7.39529795286831    2.60385152425394
C         4.75430346927906   17.68835747855242    3.29284509002172
H         4.89703425272789   17.16712411288101    4.23562648479465
C         4.76226289346881   19.07161076535876    3.30164134053213
H         4.92567333007498   19.58378309195894    4.23726791631732
C         4.46362608054972   21.92190496903440    3.34793691983925
H         3.74954169738301   21.44317160666603    4.02063724537811
H         4.09745172812399   22.92458680132650    3.13077760678593
H         5.42691394725512   22.01128176356784    3.86826638715766
N         2.61664060907672   14.89630729901600    2.66988845036181
N         2.42306594035182   12.49852644340712    3.02728987706943

