75
CSD_code = KEHGOW | q = 0 | S = 0 | Stoichiometry = C38H24F10NPPd | MND = 5
Pd        7.54685570088071    9.57724939030622    6.78806832506573
P         8.43210128056164   10.49897377782423    8.65758776143728
F         5.20353825334221   10.34496500778623    4.84008793843774
F         8.62987965766624    7.22689079571793    5.28907009251550
F         6.89571151716908   12.40166620195440    6.21403592821530
F        10.29871410970668    9.37573723217380    5.18687209424220
F        11.74530491203267   11.37018666164575    3.96631918212775
F         8.31023457403828   14.44794961916798    5.00898886318223
F        10.74334703840261   13.90601229675799    3.88726212681925
F         4.30277232838344    9.08524062392824    2.53515022052066
F         7.79328167437715    5.92047629736464    2.97201236750205
C         6.14524900384879    9.37708589321154    9.61777281921972
C         9.80038073251954   10.62516839740690    5.10769575876463
C         7.04618122845394    7.57064409477679    8.19312748308770
H         7.88216310415777    7.53613944618951    8.88985782624713
C         9.94965586587838    9.62455445944055    9.14047977406138
N         4.01402652135208    9.60851924006320    7.63164628053867
C         6.10439323641135    8.61661552449408    8.33629432821893
C         4.91131034814440    8.58066342651682    7.53991689586255
C        10.54141350158328   11.62808966117611    4.49410795987797
C         7.21962776868936   10.20075669442490    9.97647642130741
C         6.92433045542104    8.79150606491514    5.06598939237628
C        10.36961465686639    8.59260203363376    8.30295435457349
H         9.79523103284582    8.34810147190164    7.40610974806923
C         8.55970479977779   10.86066610668544    5.67604656564317
C         8.08635019898278   12.16176621323142    5.61454833584708
C         5.83928328174888    9.25433466203888    4.34513945242621
C         6.79634214619405    6.47756043125001    7.37253063278782
H         7.51461396558971    5.67524087823282    7.30842949574383
C         8.86428378023992   12.25389434026802    8.76232475930036
C        10.12504877850765   12.66375513227914    8.33304824188393
H        10.86917987688054   11.92132059520220    8.07440795598216
C         8.79072978373362   13.19728422083929    5.02026815983823
C         9.45232217503276   14.95543696702711    8.54684793323706
H         9.67900277703855   16.00680538771989    8.45726040692062
C         5.59889833534743    6.41434480442821    6.67730898962688
H         5.37791249946756    5.55289877009037    6.06506766370249
C         5.12429376300682    9.17226730097914   10.54199800064830
H         4.29093051407883    8.53863357161223   10.27621947436868
C         7.26859592893428   10.79295663962917   11.23294158513320
H         8.09495362925710   11.44113133032460   11.48763359391044
C        10.03174328002207   12.92236636843386    4.45301465382931
C         7.89286881607582   13.20575769071604    9.06087038299038
H         6.90338468585905   12.88742915243503    9.36029044205837
C         5.38193400179891    8.63138313760394    3.19309238414326
C         7.57200778540203    7.67342558121475    4.56853271248989
F         5.62496206462943    6.87873673994093    1.62371641992431
C         4.68287072076141    7.44697274309989    6.74511821730718
H         3.77480688689220    7.37114996306028    6.16964944589617
C         2.71997758951196    9.51332326024378    6.99797480808918
H         2.77358305985481    9.65184199312587    5.91268410154073
H         2.07945741703357   10.28935450844564    7.41473917263704
H         2.26602415780084    8.54738050223907    7.21568019871599
C         6.05342811353661    7.50326381823785    2.73008302987365
C        10.41721982621783   14.01102487634844    8.23352170430105
H        11.39512977690262   14.32543054190980    7.90064086800677
C         6.24959894268895   10.57194683216726   12.14030656807012
H         6.28581446541758   11.03265254193482   13.11592776669278
C        11.52165123061964    7.88877439368506    8.60622858162060
H        11.85190663145058    7.09556447871594    7.95323185561104
C        10.68375202636040    9.94829901154369   10.27682171795810
H        10.36285409972192   10.75903827085114   10.91568178637850
C        12.24937862192795    8.20913633538116    9.74092218900107
H        13.14953525800162    7.66141885208855    9.97684173260518
C         8.19298378554230   14.55146752959183    8.96040910797224
H         7.43800658355050   15.28785103238338    9.19120605076117
C         5.17615364660258    9.76727366229642   11.78929887496297
H         4.37573313164014    9.60047815153162   12.49440871514318
C        11.83123706034119    9.23642250607287   10.57348972809051
H        12.40456539709905    9.48553265262106   11.45431264336804
C         4.50578995624692   10.95892183106462    7.81125247219360
H         4.32660809465940   11.31888663280754    8.82852289420990
H         4.00512132855593   11.62363994449009    7.10699037886139
H         5.58357003309921   11.00289728581228    7.59128694829026
C         7.16117678744441    7.01516551319705    3.41874625722663

