47
CSD_code = KEHHOU | q = 0 | S = 0 | Stoichiometry = C23H19O3PPd | MND = 7
Pd       -2.46695979254581   -0.68322977364246    3.98257398278073
P        -4.02775123439186    0.44683031350394    5.04821949758168
O        -3.61118696100932    1.99850980443664    4.85570991919436
O        -4.40982929116886    0.40814411379381    6.58482672554407
O        -5.52110033240665    0.41845778071236    4.44042467699990
C        -2.79314292089285    2.22038668351924    3.75009063621848
C        -2.14708846618863    1.13987147099459    3.14271967083163
C        -1.39315216987748    1.40102005562984    2.00613581333032
C        -1.26587777938935    2.69446108860578    1.51582558127702
C        -1.89208400497045    3.74862997739986    2.15318827720122
C        -2.66842877205608    3.51410080505542    3.27605441880613
C        -3.45785260974002   -0.02041171377035    7.49781165858868
C        -2.09383508885902    0.07162853450178    7.25048826686283
C        -1.19854338566167   -0.38257515584402    8.20711570318678
C        -1.65460821620246   -0.92142891111344    9.39724916183918
C        -3.01627897318477   -1.00168149399680    9.63982080168321
C        -3.92020201493397   -0.55624717350293    8.69236974665471
C        -5.46715610427904    0.42854503400035    3.04562647661035
C        -5.01750207694219   -0.70438524242649    2.37015169258050
C        -4.88058434303380   -0.66085756791262    0.99074408436055
C        -5.17799697257724    0.50102857445324    0.29720386731568
C        -5.63887004799648    1.61563217028108    0.97602955823231
C        -5.77554389848455    1.58764244068999    2.35434767317348
C        -1.48739516172319   -2.57240735401900    5.26029572221910
C        -2.49905682235652   -2.99353729068932    4.32215506638577
C        -2.04933821232533   -2.70171721815315    3.02854688082333
C        -0.87416373531020   -1.91011231399684    3.16649787037579
C        -0.47715610749361   -1.94410198168329    4.55221980491356
H        -0.89610717623180    0.59304598719767    1.48276863566554
H        -0.67262465879579    2.87258774602218    0.63098898790274
H        -1.78893085306206    4.75442008827548    1.77533816383007
H        -3.18398368960306    4.31492723968464    3.78308534259048
H        -1.72291781837035    0.52191100320938    6.32840447001100
H        -0.13883687695187   -0.31291600692161    8.01374252267127
H        -0.95143920980881   -1.27544827810626   10.13558576633509
H        -3.37870182234466   -1.41799339468168   10.56740709848999
H        -4.98408592214802   -0.61746005690915    8.85931423773150
H        -4.84881929570890   -1.62468274957967    2.92845830349203
H        -4.53698200314698   -1.53620356094222    0.45986415260212
H        -5.05288781831666    0.53598365321627   -0.77418884355701
H        -5.87628076193162    2.51985757971808    0.43706019338594
H        -6.10671681120755    2.45563594763205    2.90302389481150
H        -1.49105632764152   -2.80782059456246    6.31531992947717
H        -3.32408858501534   -3.64854035401024    4.57558886306047
H        -2.50473557220984   -3.00622795564433    2.09496512912100
H        -0.20292265990439   -1.65979025551569    2.35406445743369
H         0.45970335840384   -1.57348169492597    4.94256545937462

