82
CSD_code = KEHJOY | q = 0 | S = 0 | Stoichiometry = C34H40ClCoN2O2P2 | MND = 6
C         3.40643282296074    3.59826823673007   11.30493064363216
C         2.47861858401481    3.11861279170128   10.39234816949976
H         2.78359845925244    2.80750176124132    9.40415745555508
C         1.13438784943427    3.04899327416762   10.73235986008997
H         0.42492570327337    2.66835137610257   10.00990463394597
C         0.69385472560188    3.46634833799023   11.97847479551165
H        -0.35554835444784    3.40841425970104   12.22926580832424
C         1.60490394217599    3.96082740734753   12.89194982308755
H         1.30422568535574    4.30389458441938   13.87131131737662
C         2.94975708583804    4.02146759416037   12.55129123787888
C         3.98158153411384    4.53099614213028   13.48736086417568
C         6.33115139808692    4.85574550205321   13.63735355632572
C         6.50148192933145    4.47644468543422   14.97357172423754
H         5.73437109348152    3.90046879581418   15.46657211884832
C         7.62631475349764    4.85838316269200   15.67417469850637
H         7.73300452624663    4.55966162553242   16.70811492851819
C         8.62907256923473    5.61488776022049   15.07768896602481
C         8.46361151859584    5.98562527451627   13.75050583798415
H         9.22792049396810    6.57617686278542   13.26292772553846
C         7.33429499402970    5.62146199009698   13.04533271715976
H         7.22393860216356    5.91220948918794   12.01256794982392
C         9.84191690465687    6.02107500756161   15.86065912766131
H        10.56820505599969    6.51959502338915   15.22301687503709
H        10.31521305804058    5.15101826570898   16.31452017460890
H         9.56248153742732    6.70309556651377   16.66387754505852
C         8.13394201198043    3.26122625576164    8.52452024463564
C         9.01973243642841    4.32895589970249    8.39110077995825
H         8.86688535523494    5.19755135247065    9.01345053092995
C        10.06778024078322    4.28223386516926    7.49318589015523
H        10.73610284581577    5.12470540279797    7.40049317825167
C        10.25961371300158    3.15076624523755    6.71724790014869
H        11.07261324068911    3.10586603332720    6.00889298925772
C         9.41842604586524    2.06310264479954    6.86321826119297
H         9.57447102691592    1.16440872668676    6.28685751090414
C         8.36879908170473    2.11762413158342    7.76679923681629
C         7.02635990025671    3.41753328261483    9.51155144462219
C         5.25630123350650    2.82855895670396    8.02642284892542
C         5.59663463604144    3.58668065937473    6.90384688948326
H         6.28833204253610    4.41185879807200    7.00597918198482
C         5.06403923624150    3.29068699309621    5.66470855398004
H         5.34865722226631    3.88970940688316    4.81076927282281
C         4.17033171009722    2.24070686698043    5.49924273555856
C         3.83043547599419    1.48797720522217    6.61716618613294
H         3.14416037113599    0.65954777252216    6.51098417558725
C         4.36064179687829    1.77158835700986    7.85906571768581
H         4.10850897718456    1.15965096101604    8.71030588806163
C         3.57153166670589    1.94170668863649    4.15869466112727
H         2.63463659148437    2.48737097154055    4.03763070923284
H         3.35648354144691    0.88021209927416    4.05862268800543
H         4.24229921707331    2.24365469761279    3.35752890792717
C         4.25206526550302    7.06344714033773   11.45055372314321
H         4.02698388718075    7.98688411602104   10.91734117443794
H         5.01129342743850    7.24698133261249   12.20812962860957
H         3.35518766667421    6.69858560400476   11.94731757101262
C         3.52960516285437    5.88438311272766    8.99722601962498
H         3.44986023658269    6.90442956956214    8.62286645086415
H         2.58232751954774    5.57971496740583    9.43579072018098
H         3.76767505412377    5.21179845398669    8.17507797365861
C         6.16785822692507    6.71901383331899    9.40266219180622
H         6.48313543431182    6.15849523957886    8.52486645161015
H         7.02499165483219    6.85864453190433   10.05730458532323
H         5.78982880409463    7.69294737134012    9.09154103462022
C         4.54100383550120    1.38744325923009   13.52222031712546
H         3.50344744875728    1.31026343288821   13.20345827896386
H         4.60964381283864    2.15085963781116   14.29172744993197
H         4.87301194785254    0.43145869555839   13.92639122150035
C         7.26317996722230    1.62877602022613   12.78913568812524
H         7.34246288654301    0.66628918490947   13.29471023104585
H         7.45593829875622    2.43744754247033   13.49167312938387
H         7.99572424584167    1.68901650958012   11.98706936362936
C         5.41935192833613    0.29440200846262   11.11007915147646
H         5.71349483499523   -0.56324539543374   11.71494773032724
H         6.04717351944467    0.34410997191435   10.22407840401099
H         4.37947550566154    0.18193931254479   10.80840641831978
Cl        7.39616548592393    0.70397452562952    7.96059855734595
Co        5.29324768743873    3.79272716003719   11.11252066167251
N         5.20263657704415    4.48331672392932   12.91078905775545
N         5.76446919359859    3.13287171930987    9.28409426830642
O         3.72537034589644    4.96047839778336   14.60791776783557
O         7.29443426396898    3.87298850917969   10.65596420424909
P         5.58687633881767    1.83578969495966   12.08948674663283
P         4.84014344589052    5.79235876491549   10.27682888967055

