56
CSD_code = KEHJIS | q = 0 | S = 0 | Stoichiometry = C20H30ClNNiOP2 | MND = 4
Ni       -3.24982275909720    5.39044223998606   -1.80601178502423
P        -5.41571872901012    5.32932287374998   -1.85234264120540
P        -1.08403990956601    5.35753693764117   -1.73404291884773
Cl       -3.27383839238371    3.68017474182115   -0.51983023560267
O        -3.22991876444957    9.91376750195009   -1.13465533465654
N        -3.28210317964452    7.77193681641942   -0.36047240673666
C        -6.20884612279368    5.35454642774563   -0.20354312691115
H        -6.00956028549996    6.30747682810176    0.28501109011990
H        -5.79441700931540    4.55243658508492    0.40400802470685
H        -7.28417953381156    5.21901111058147   -0.31288002903665
C        -6.08579084222513    3.78933697714166   -2.57372885274929
H        -5.67366669330313    2.93981751432298   -2.03201307032456
H        -5.79017736691968    3.71951738886293   -3.61957810035464
H        -7.17292482103205    3.78541878752147   -2.49955372776630
C        -6.40189057195280    6.60247022128498   -2.72988119702642
H        -7.46508705625340    6.39110331257100   -2.62748872084527
H        -6.13212398393177    6.61641360617652   -3.78389689757217
H        -6.18513690665134    7.58254717921946   -2.30873480184624
C        -0.06739716796786    6.63668943688638   -2.56682711775261
H         0.99126906302585    6.43729072930399   -2.40851300323666
H        -0.31589972600692    7.61645601461530   -2.16298959900626
H        -0.28257946534756    6.64202897917442   -3.63343896778255
C        -0.35296076541619    3.82075702999775   -2.40186651315451
H        -0.58469666425830    3.73967597134701   -3.46285978507713
H        -0.78605610303539    2.97013410681930   -1.87872756877530
H         0.72775747380123    3.83147831774499   -2.26286683037097
C        -0.38563066091195    5.40836499581723   -0.04362763540334
H        -0.82485708188990    4.60795553771077    0.54856628459804
H        -0.62239452856452    6.36385685570854    0.42257784073940
H         0.69554344394862    5.28394044652520   -0.09085311254164
C        -3.22424374508152    6.79596033787810   -3.05013832404067
C        -3.20041216529331    6.41888459662335   -4.39179898903788
C        -3.17998552325759    7.36432563944683   -5.40350328767253
C        -3.18298732537666    8.71379514660538   -5.08847203382356
C        -3.20565063171699    9.10261334629032   -3.76582619280705
C        -3.22661845219637    8.16084471950830   -2.73542741429797
C        -3.24635888177676    8.71338629583832   -1.34506598549790
C        -3.30624011076149    7.93146725954319    1.02381135615847
C        -3.30149321706098    9.17106987172266    1.65715860486919
C        -3.32932881976081    9.23506371409667    3.03729440833779
C        -3.36241767763591    8.08680214725714    3.81885106981270
C        -3.36531536062756    6.85443341904684    3.17664473756694
C        -3.33810021623981    6.77336115293735    1.79957987317426
C        -3.37293274243589    8.17885478933644    5.31501882441235
H        -3.75646494258225    7.26267782687149    5.75786683765264
H        -3.98569271058729    9.01473463599582    5.64635213812617
H        -2.36043529619873    8.33819148197263    5.68817731714589
H        -3.34183386455922    5.80631695087368    1.31320508835036
H        -3.20744035601703   10.14677580145059   -3.48824783382453
H        -3.32652246715978   10.20315040282838    3.51769328313543
H        -3.16722783123119    9.45548489707987   -5.87332170180146
H        -3.39051990021998    5.94546023635747    3.76050526990675
H        -3.19747274025635    5.36456225276743   -4.65546702868480
H        -3.27761830111347   10.07064986092602    1.06557981550646
H        -3.29470903088831    6.78123425637266   -0.66574128562809
H        -3.16173257948449    7.04569348852768   -6.43656780759905

