76
CSD_code = KEHJEO | q = 0 | S = 0 | Stoichiometry = C32H36ClCoN2O2P2 | MND = 6
Co        4.86379205525576    3.36670173652917    5.70902335616539
P         3.31322855216240    1.80654764268151    5.50037728790253
P         6.37721954431600    4.97681575946444    5.60523232264314
Cl        0.54714090541198    4.84062264723547    6.65820588538429
N         6.27877320986415    2.08520919490968    5.62415055540048
N         4.41325021463887    3.79693423635191    7.71018476365895
O         7.63374919348844    0.93597197509628    4.16578138387895
O         3.45635860214092    4.67971810879141    5.95210075081239
C         4.98898371697647    3.32657910053321    3.81445616833754
C         4.26683790043294    4.08299104122098    2.90651899542046
H         3.51954483759036    4.78447801433546    3.25009959510267
C         4.50203362242914    3.93086337179859    1.54665492026838
H         3.93697091162832    4.52273937108068    0.83934668446345
C         5.45094791197660    3.02942011068549    1.08786887778890
H         5.61943651121914    2.91901425105541    0.02630352168496
C         6.18451107131562    2.28118120732403    1.99021685636381
H         6.94007827942663    1.57941704219973    1.66833529350369
C         5.95436431782718    2.43893940823098    3.35026569733296
C         6.73083568035429    1.73153078002981    4.40113329023664
C         6.89868906553568    1.56793645985360    6.76009212581805
C         8.28675009421023    1.62053596934556    6.91443178387931
H         8.88849410414284    2.05681309790446    6.13130228326404
C         8.88477136550322    1.09589760022515    8.04330817148506
H         9.95988949252663    1.14199488568017    8.14724473589019
C         8.11879529086445    0.51371072238000    9.04041428943410
H         8.59183429175384    0.10458399408642    9.92112617592848
C         6.74272550500617    0.45544972462982    8.89663138579894
H         6.13627054595319    0.00108346339105    9.66762179110928
C         6.13967501399037    0.97606774450936    7.76918682108136
H         5.06583336802617    0.93660527304692    7.65662884506609
C         1.38726019137868    5.79234303931124    7.82680995255648
C         0.67600725758016    6.72380581742559    8.56572064958186
H        -0.38102088737643    6.84898222951278    8.38963018254080
C         1.32989442288535    7.48095201332136    9.52082838818175
H         0.77661608533446    8.20774105365129   10.09559259128932
C         2.68701167300136    7.30535513489342    9.73821000731818
H         3.19847469895899    7.89621532139530   10.48244014556105
C         3.38881464693332    6.37134464128681    9.00095409854569
H         4.44695497925008    6.23102995442388    9.16671064263508
C         2.74948867231621    5.59726023298500    8.03667395474977
C         3.54047481126527    4.63635324266912    7.21698768344434
C         4.50915327336453    3.50666786390594    9.06561940296587
C         5.76119691169731    3.34359914981525    9.65853345353223
H         6.64806969650133    3.45772124725732    9.05744695379184
C         5.86667079535035    3.02555738467958   10.99799923491221
H         6.84576802696674    2.90557255728406   11.43837357844440
C         4.73131758035476    2.85382938511026   11.77199279847533
H         4.81692010428388    2.60336896182140   12.81878354686898
C         3.48329543372697    2.99384296933963   11.18845588638934
H         2.58957931718539    2.84879225893456   11.77851963301592
C         3.36848760539884    3.31287110322959    9.85003270794108
H         2.38934987158064    3.40481768089706    9.40149826630499
C         3.83599364429948    0.14328209342197    4.95008981312627
H         4.51263158797841   -0.30061456462026    5.67624870975815
H         4.36619013109024    0.23907411776906    4.00439594754312
H         2.96253831997874   -0.49482403014282    4.81820246603965
C         2.25309160892827    1.41728647677125    6.94991490697923
H         1.64111924314939    2.28889916249395    7.17531264087350
H         2.85482858524588    1.17724869537340    7.82385790298962
H         1.60382212729766    0.57457208120499    6.71182608242044
C         2.00709964825246    2.16970853555279    4.27033155706488
H         2.43869442644678    2.16224802372456    3.27209626502542
H         1.59673526064998    3.15697891113459    4.46857100167052
H         1.21671730262522    1.42246944461068    4.33871884251844
C         7.65310207110490    4.91299892192234    4.29469696786608
H         7.18142252216996    5.00297206019763    3.31857971932703
H         8.17611461435934    3.96032661592251    4.33789944699351
H         8.36401888662351    5.72656885598549    4.43677967933356
C         7.44310571775886    5.26851791464447    7.06911242796632
H         8.00786665911742    4.36148726724588    7.27905258245355
H         6.82650996068906    5.51239734927670    7.93159631537567
H         8.13169079127181    6.08989648576501    6.86978352417051
C         5.70363504164718    6.65761559960762    5.32716106709807
H         5.05219447571202    6.93575806703343    6.15357716541669
H         5.11596891019084    6.64859342819415    4.41143612930684
H         6.51553811951079    7.37926130915981    5.23910046453391

