79
CSD_code = KEHKEQ | q = 0 | S = 0 | Stoichiometry = C42H24F10P2Pd | MND = 4
C         4.96626955201955    6.21018630838318   11.17949317657046
C         5.05543314239439    6.84760447245575   12.41026365234507
C         4.86519592635923    8.20694605897007   12.58857090807482
C         4.58225188619275    8.98478691626405   11.46852879445692
C         4.49288879740453    8.39157707296842   10.21357699740457
C         4.68010010057585    7.01891290049122   10.09240672221017
C         6.97121733998993    4.14961579673973   10.82101988226383
C         7.57014517227117    4.05096445018712    9.57635918594985
C         8.93361402445432    3.82535662317776    9.42125052483647
C         9.73433964575468    3.67964064130814   10.54924359669275
C         9.17116217178240    3.76832386508001   11.81986381054948
C         7.81141026034647    4.00753276943729   11.91782692215019
C         4.31620513082031    1.12012984417944   10.49410788112577
C         4.39034101959856    1.74941867858063    9.25349762750160
H         4.87991808469566    2.71982605424628    9.17130246566190
C         3.84673070189239    1.13901991473978    8.13775364831560
H         3.91114063261511    1.62371765229284    7.17560892058669
C         3.22090071265976   -0.09077481722678    8.25946374616690
H         2.79100612271491   -0.56643146207154    7.39062614314063
C         3.14364225542091   -0.71568501867476    9.49462115761277
H         2.65501755864888   -1.67463721289832    9.58526261575883
C         3.69136951192329   -0.11604305890010   10.61384479415731
H         3.63067593029601   -0.60095424852278   11.57808477966856
C         6.52663565256604    1.07459161678419   12.34587679314286
C         7.27246776985443    0.45607387872132   11.34572725364377
H         6.88642235845518    0.41890233848190   10.33536650680210
C         8.50115435612372   -0.10095419840445   11.64936782883142
H         9.07972368818726   -0.58015447829110   10.87375008027924
C         8.99540211758461   -0.03137683949574   12.94225161857248
H         9.96093612908560   -0.45518298439897   13.17278799167468
C         8.26048463428168    0.59507234886594   13.93681071931418
H         8.65467489924395    0.66212734714720   14.93948919617494
C         7.03186681869472    1.15513459084417   13.64199700087673
H         6.46681262297905    1.67485699938432   14.40455162635799
C         3.82744652540141    1.71812112415047   13.23098285107090
C         3.80453680280458    0.58267873806337   14.03051224597843
H         4.56389782185905   -0.17782329782690   13.90830479779245
C         2.82351929945743    0.44059169219069   14.99793396314347
H         2.81234539846296   -0.43855064639154   15.62476595446305
C         1.86277846603940    1.42477308914700   15.16957811908646
H         1.10421885093803    1.31044480369665   15.92946574046024
C         1.87545209520456    2.55986231736942   14.37588417807790
H         1.13587159335511    3.33548244050332   14.52201855740305
C         2.85680989341394    2.71360695533265   13.40516999989765
C         2.18931612744484    5.53566880630917   13.13338705215817
C         2.51776955730816    5.79843052975139   14.46181245354597
H         3.13329978519961    5.09678072013895   15.00925987071213
C         2.07869477432941    6.96404365794357   15.06074736367123
H         2.33804394753046    7.17083865516213   16.08799771124719
C         1.32680865381889    7.87668186909377   14.33729295729979
H         0.99842449637481    8.79301962833400   14.80368129594920
C         1.00941834081741    7.62348745342958   13.01218586111045
H         0.43235098393452    8.34040904089255   12.44740548239345
C         1.44404416194763    6.45952173209894   12.40520871856437
H         1.21336907058780    6.26145200972390   11.36652729097552
C         1.81541690268468    3.68957080888049   10.94514794883458
C         0.58998930600766    3.07326254724897   11.17193131909398
H         0.27248936607074    2.85404172194830   12.18171807949617
C        -0.21465869147589    2.73762923251360   10.09858102061588
H        -1.16592608068356    2.25621143279622   10.27155409725871
C         0.19552797604170    3.01722135662205    8.80410482298359
H        -0.43896922169768    2.75162316834315    7.97178764401689
C         1.41450207016978    3.63451168019381    8.57668369264469
H         1.73286256324741    3.85607017784219    7.56954807070719
C         2.22865986394762    3.96725645441077    9.64413460277468
H         3.19245676722258    4.44849870613968    9.47715686447559
F         5.29612286729589    6.03117313437263   13.47683081914053
F         4.92158465572543    8.77395794415151   13.80324422433973
F         4.37623552213412   10.30297568916904   11.60325628058686
F         4.20179007639537    9.14598995056311    9.14348618942090
F         4.55170909525896    6.43305187098928    8.88317861375836
F         6.78271182668768    4.14896781720328    8.48448714046789
F         9.48167581537145    3.71979074734165    8.20169047073983
F        11.04552875607583    3.43362825957775   10.41362240119807
F         9.93731091922274    3.59673191728483   12.90780615253851
F         7.19960412446385    4.06417281693100   13.13626305429780
P         5.04172690810133    2.00953355303775   11.90276718562073
P         2.96497393800096    4.14232990060975   12.27766964357975
Pd        5.06060130061933    4.22155297189350   11.42947262751006

