29
CSD_code = KEHKOX | q = 0 | S = 0 | Stoichiometry = C14H11MnO2S | MND = 9
Mn        1.35867544494136    0.25573005115709    2.52049401961105
C        -0.08956655589887   -0.68605721746569    2.92432712583893
O        -1.01580492509122   -1.33878214234262    3.14455327514777
C         1.57176976512629    0.72845625403582    4.21632928861069
O         1.77956106169710    1.02721163207717    5.31212821003126
C         3.70667162850938    0.49665600433345    2.00877128209600
C         3.36335482996095   -0.79741767624706    2.43002568869477
C         2.44357155953141   -1.55210245750387    1.68883734266134
C         1.87778735601397   -1.01599825526593    0.52090886730384
C         2.17502626196674    0.28774989069592    0.14672289119319
C         3.08731753068454    1.04672440202841    0.89331286326602
S         0.21795294406181    2.16794099010810    1.82195972692640
C        -1.15913955111650    2.71455651175770    2.75844688830029
C        -1.49804266103138    2.12578875573540    3.97043937136435
C        -2.59076071002438    2.58913558640455    4.67783557187786
C        -3.35041415785545    3.63960035894333    4.18822081128174
C        -3.00931503642319    4.22726269862990    2.98127573523466
C        -1.91938908547081    3.77057676929112    2.26533449318216
H         4.46847301533227    1.05340237021217    2.54031970277536
H         3.89181696194831   -1.25329764608609    3.26118170296900
H         2.26331588405008   -2.59046810573579    1.94816348968475
H         1.22664678867984   -1.62564842634720   -0.09294257811810
H         1.73519311611305    0.71123707855606   -0.74687923712403
H         3.34171195460451    2.04694437170727    0.56740828259975
H        -0.89246259551117    1.30305351250288    4.34011191185334
H        -2.84874757398306    2.12498939738671    5.61797485780082
H        -4.20360624114579    3.99761212071909    4.74460338040274
H        -3.59607640133957    5.04680831676706    2.59248977049726
H        -1.64742060833018    4.22293485394373    1.32424526403751

