61
CSD_code = KEHLOY | q = 0 | S = 0 | Stoichiometry = C29H30SiZr | MND = 12
Zr        0.48699560637075    1.16317049835084    3.90670147408324
Si        1.16490008676300   -2.32039306472359    4.77881749463230
C         0.21366377166469   -1.01916356566157    3.82208515434273
C        -0.79253021699470   -1.31291541188311    2.95918774897447
C        -1.45792255737953   -0.24930514222954    2.20593967068790
C        -1.07631568936343    1.04143805987347    2.36173920511093
C        -1.61512174175779    2.10314706994170    1.51566262748867
C        -2.03445411844104    1.87605726029767    0.19758640883383
C        -2.48494900189884    2.91111127842188   -0.59786206672635
C        -2.53164319749807    4.20567003141941   -0.10644438366986
C        -2.10880952071026    4.45675083508620    1.18984885598800
C        -1.64735869338731    3.42612872032273    1.98525274449776
C        -1.25531086662836   -2.69397194597453    2.67596777814616
C        -1.95638638118306   -3.42089666902442    3.63116713536630
C        -2.35953394892956   -4.71778603263585    3.36945778853490
C        -2.06693915066269   -5.30425922591121    2.14945370591094
C        -1.38099088396122   -4.58237907386472    1.18680888038816
C        -0.98453348964092   -3.28302731498146    1.44527481452973
C         2.73165173221368   -1.41464637112667    5.44574595402875
C         1.78127875044857   -3.83379615058684    3.77659787359631
C         0.25476893528404   -3.01343260448025    6.32538914023066
C         2.91690754253221    1.67682374511057    3.79779601775901
C         2.64851417188312    0.75743813814559    2.75514027974957
C         1.85011391427010    1.41392051361247    1.79426622581828
C         1.62514024876947    2.73470335074507    2.23941412028629
C         2.28600351016065    2.89818809043504    3.47182172994859
C        -1.10374048466410    0.84755697643708    5.85798095030495
C        -1.41194944861662    2.09139988162332    5.26830942056525
C        -0.30560028061968    2.95156078816056    5.46267558305314
C         0.67905435888052    2.23653590273376    6.18052586030761
C         0.18655334979473    0.93789619435531    6.42221533325900
H        -2.26270725976705   -0.56340779117337    1.53505694117076
H        -1.98885358165943    0.87466457177319   -0.20564543405035
H        -2.80153696936228    2.70947528714768   -1.61153926844452
H        -2.88551649920688    5.01336641291915   -0.72972470434537
H        -2.13398063827177    5.46619074325956    1.57683999688293
H        -1.30746826925514    3.63864904731111    2.99660345218108
H        -2.18802073287572   -2.95599081797327    4.57808193420711
H        -2.90409985438308   -5.27490099027898    4.11870583573710
H        -2.37578273784133   -6.31964349459072    1.94771777863705
H        -1.15471820857262   -5.03545691604318    0.23205410602202
H        -0.44581259494872   -2.71804267347304    0.69732748995351
H         3.55557323028063   -1.46749454474623    4.74022806410929
H         2.52987701175014   -0.36112064518876    5.65213234809997
H         3.07945445891464   -1.87037655891237    6.36779756921505
H         0.95525694676765   -4.48643911955786    3.51445612769835
H         2.25751161722785   -3.52547706403425    2.85072366306927
H         2.50149675476685   -4.41799361420335    4.34105871623660
H        -0.35856647828535   -2.25799447438048    6.80791833281374
H        -0.39302802742433   -3.84012497418505    6.05437680971895
H         0.96212700214573   -3.38174185884777    7.06234169277324
H         3.62984411971259    1.53321758057911    4.60216177780111
H         3.08664470808943   -0.22640541308520    2.64097620457387
H         1.55340587732006    1.01011546003839    0.83412430555641
H         1.14049031481428    3.51671247606325    1.66806597865302
H         2.40991577175552    3.83577877656560    4.00212527582669
H        -1.78387431452867    0.01105921631973    5.95443702035531
H        -2.37967447837330    2.37025714899541    4.86804807560348
H        -0.28187060559667    4.01626585628635    5.25312884849053
H         1.58571781850408    2.65755468666894    6.60126565222905
H         0.64713931160516    0.19147892476610    7.05563188318793

