87
CSD_code = KEHMEQ | q = 0 | S = 0 | Stoichiometry = C34H49ClNPPd | MND = 4
Pd        1.19639479102908    8.13960450078034   10.15666943039944
P         2.26485527193427    6.53560264348810   11.34402193235084
N         0.45717629267253    9.90719935182598    9.14754977853200
H         1.21256697357766   10.14399955106903    8.49606104008394
H        -0.40924016449640    9.80936669279775    8.61179265990205
Cl        3.21424413580845    9.33123127520229    9.94103159681562
C        -0.68823509609600    7.20931172818570   10.16159430021541
H        -0.67537453205060    6.36394341415720   10.84450480496871
C        -0.78041504471071    6.95535668825888    8.72625712746479
H        -0.23099116821160    6.17779102732902    8.20948972290062
C        -1.67757650982414    7.79961402816583    8.14814120824221
H        -1.92175388211115    7.85938712897985    7.10100648864258
C        -2.27934362053278    8.60761793395088    9.17410530212163
C        -3.26882158763008    9.58241693888715    9.12947379648848
H        -3.71638801043748    9.87011808650928    8.18779537811439
C        -3.67812010630600   10.16895031585779   10.31312348983452
H        -4.45606957958429   10.92002299192595   10.29799153064399
C        -3.11076736617693    9.80093094487551   11.53066029187076
H        -3.45528186774291   10.27464049135267   12.43922091757825
C        -2.11735006608697    8.83856173355013   11.59206900869601
H        -1.68275210865676    8.55812719537844   12.54326688047645
C        -1.69191637519315    8.23842915029548   10.41423648330098
C         0.31606324582742   11.01292323872475   10.11060920875352
H        -0.49042089003750   10.76257716660750   10.80921240852579
H         1.26263009233992   11.10248942841857   10.65921641313879
C         0.01316655137656   12.30408077577308    9.39424499198498
C        -1.29527598703497   12.74508218967828    9.24850442945105
H        -2.09943523995314   12.18036464437975    9.69816839989659
C        -1.56746070706693   13.89852769531752    8.53379466379183
H        -2.58795732697810   14.23622652332995    8.42721601832405
C        -0.53524535569391   14.61770044145188    7.95552012712103
H        -0.74871152138879   15.51765120814611    7.39775635516387
C         0.77188744518482   14.18160435180663    8.09442283630295
H         1.57980913849849   14.74060487888478    7.64555068551651
C         1.04453011261535   13.02904302029961    8.80896644470035
H         2.06472908988136   12.68834893785030    8.92014677565639
C         1.43790700702345    4.93876179605900   11.86619140978740
H         0.50962509363441    5.29040450039393   12.34214702766695
C         2.14147289737728    4.03659712519382   12.88082468311575
H         3.03353880307228    3.59110125061344   12.44359739631262
H         2.44573109297705    4.59151125161048   13.76899445717722
C         1.18472256707679    2.91901007971300   13.30078775324808
H         1.67687257922653    2.27262616537001   14.03065679944954
H         0.30566183513487    3.35537802661029   13.78120889944512
C         0.74463429686316    2.09477087155848   12.09422052140876
H         1.61498485439949    1.59550331121378   11.66149694663364
H         0.04098445383301    1.32227413226239   12.41002615895374
C         0.09995911342683    2.98926905494300   11.03925074648259
H        -0.81868583489726    3.42459690436860   11.43932660243775
H        -0.16737274956132    2.39728252307811   10.16171675586547
C         1.06248132137420    4.10468677415076   10.64072503462826
H         0.61218492226976    4.73919446610660    9.87477305493921
H         1.96330513054156    3.65422549904920   10.21975500786322
C         3.82397416919228    6.15846663924323   10.40718231431463
H         4.39395317703872    7.09198670620426   10.50093502739143
C         4.71336296893997    5.00679949699913   10.86079740683948
H         4.21558768182058    4.05130812998036   10.68596851105482
H         4.94050227672921    5.08880746475020   11.92602755098835
C         6.00697731270526    5.03637128200128   10.04601081712867
H         6.53070808980570    5.97610997726059   10.23344371659304
H         6.66070919568482    4.21916653062790   10.35945008208079
C         5.70283384230832    4.91519634225461    8.55471103843166
H         6.63228865567396    4.96022255063755    7.98392974375570
H         5.23900794128334    3.94490638523028    8.35850486883941
C         4.76025172735202    6.02685810384249    8.09908174169620
H         4.52836127672622    5.90528065202149    7.03895888522803
H         5.24678630967439    6.99561627695571    8.22777319001396
C         3.47549170796544    6.00159801201538    8.92141801247665
H         2.80895735851161    6.82618955826795    8.60683247404235
H         2.95338018421254    5.05822682579530    8.74782711600517
C         2.69071576337470    7.31688473722148   12.98596700344092
H         2.70336072650440    6.54185636188638   13.76056802656178
C         1.54228086287428    8.29064810845271   13.28523778377218
H         1.50002989024580    9.04712088377471   12.47869612275322
H         0.59202121415309    7.74370792426679   13.29210367598519
C         1.74988927285389    8.99341718708468   14.62236238609710
H         0.93570909564283    9.69910246016650   14.79916674181961
H         1.73483616044038    8.25568938687303   15.42944861054940
C         3.08842312980284    9.72433060344283   14.62796135105373
H         3.08520883631212   10.48948238774847   13.84925741106653
H         3.24024678336644   10.22004072680673   15.58883266656298
C         4.22404693640074    8.74249162055101   14.35961118769756
H         4.25333895574986    7.99388720350650   15.15658860663134
H         5.17974752730110    9.26974845416015   14.36165793983250
C         4.02906981648278    8.05148780936305   13.01152331171329
H         4.84774705143174    7.34868353597900   12.84326123166116
H         4.04743769093901    8.80086762904136   12.21841126284514

