75
CSD_code = KEHNUI | q = 0 | S = 0 | Stoichiometry = C28H43BrP2Pd | MND = 4
Pd       10.31588253917226    0.74396039865807   13.99355309380188
Br        8.66711363934065   -0.97611252137652   13.53918304634004
P         9.90202234079908    1.97137632584192   12.19107346754329
P        10.94214412992082   -0.06923806205060   15.96493885491524
C         8.15289684449183    2.34956777320789   11.75513727204293
H         7.75492676663965    1.46735695067324   11.24320155643033
C         7.38581035344074    2.57440179334017   13.07417039113109
H         6.90012725367430    1.66070796689635   13.41792496995613
H         8.08134146649038    2.90818814981351   13.86115373933243
C         6.39523097114445    3.68789405667374   12.75424126525080
H         5.52605001053097    3.27308077359139   12.24153489126026
H         6.05336680156733    4.21439740041804   13.64439261205741
C         7.17578289607768    4.59123416779512   11.80235261490421
H         7.87608951438798    5.20636683671259   12.37138848519666
H         6.52927227225203    5.25730529420525   11.23233551714612
C         7.93319908987736    3.61264675474372   10.89992660512605
H         8.87095882092549    4.03821884331687   10.53855098292699
H         7.32657397031600    3.36400591446508   10.02828360681058
C        10.71901054559106    1.38807444324424   10.64007238608137
H        10.60865861868347    2.16138495469287    9.87048670704601
C        10.12395025679495    0.03193568521466   10.20769819238541
H         9.17023745146364   -0.15427563171536   10.70731200770297
H         9.94348317497196    0.00895241493305    9.13301496435236
C        11.14599333489655   -1.03899665284274   10.62510489221250
H        11.69225645318452   -1.40424814521780    9.75353155058003
H        10.65925212672828   -1.88609196753814   11.10651550957679
C        12.10477469638387   -0.31637414196805   11.57014869023095
H        13.07610486251758   -0.80534084863040   11.64298166356296
H        11.65166673267112   -0.25041339229946   12.59145802014015
C        12.18571377804461    1.08504217030183   10.97166536099412
H        12.78351607488319    1.06830658273283   10.05700181643723
H        12.62514628224271    1.81135491787043   11.66112809164021
C        10.70225224166876    3.58859647287282   12.55713345343437
H        11.16662039763055    4.02390390872105   11.66545099793358
H         9.93262211587637    4.28354406392131   12.91318065499935
C        11.66507357849150    2.17295756161126   14.40314423110857
C        11.71005747265053    3.35357205281254   13.65541650592667
C        12.66193839067492    4.32638759141333   13.93520550128105
H        12.68787099548092    5.23344423953643   13.34605379134925
C        13.56909177446231    4.14384367585159   14.96221543359053
H        14.30519532678152    4.90441792566997   15.17745063406300
C        13.52733160316421    2.98492357601026   15.71506531612013
H        14.23287834897413    2.83957009612310   16.52224696343245
C        12.58665188799026    2.00039925841119   15.44035910717079
C        12.57177207176577    0.73219570967672   16.25813083028736
H        12.74769648039509    0.93663542285193   17.31969384927013
H        13.35894103727181    0.05462591857390   15.90423038006307
C        11.15026908197135   -1.86773918718074   16.30246601999598
H        10.14292759478637   -2.29635579879592   16.25715290336061
C        12.02931665769427   -2.49519299722171   15.19673900146296
H        11.48107936784181   -3.28903639379110   14.68926708477040
H        12.31239232943967   -1.75515061755560   14.43635808803597
C        13.25044496411691   -3.06331468257169   15.92059447236555
H        13.66603736394842   -3.93004650136854   15.40906658083317
H        14.03488931694343   -2.30769512364030   16.00210559788088
C        12.71896128130721   -3.40058761539494   17.31077593409150
H        13.51300855280642   -3.54281605811286   18.04314670560556
H        12.12029358037256   -4.31154795029168   17.26525854414081
C        11.82429352935542   -2.20734690951032   17.64018148252799
H        12.44211807428156   -1.37432750903451   17.98352668550859
H        11.09747440884857   -2.43382560373936   18.41911558591041
C         9.88100218892503    0.56611867926407   17.32635908146885
H        10.42003002458221    0.51913873465342   18.28144973661289
C         9.44256342792772    2.00145248242418   17.02160319813945
H        10.23546355771698    2.73668367267572   17.16716082003347
H         9.10533295049349    2.04727687264412   15.96794150210824
C         8.25253449113008    2.21054389950267   17.95350722118996
H         8.61119351900227    2.49062848970262   18.94588504997576
H         7.59034516537121    3.00035785594749   17.60160201534303
C         7.54815988430269    0.84360221489656   18.00632028257491
H         6.62574691589108    0.85710876598603   17.42688428862054
H         7.28978841055523    0.58358664062129   19.03288887100761
C         8.53932228471183   -0.17234237440453   17.41040839023094
H         8.60440515946760   -1.08018469070162   18.00882435347907
H         8.21985812274377   -0.45257497339549   16.40197002783755

