67
CSD_code = KEHNIV | q = 1 | S = 0 | Stoichiometry = C28H30CoN4O4(1+) | MND = 6
Co       -2.72960234239330   -0.00001165823161    8.18246684055151
N        -1.32558830979522    0.90957322200258    7.18410387579716
N        -2.99732534159814    1.76381775893871    9.04085198230023
O        -1.39200589944971   -0.51621465708655    9.42995053382790
C        -0.28207203736268    0.37815530038915    6.54980879135111
C         0.79961116841950    1.12133746498178    6.11474490840004
C         0.81358066638433    2.48765708044722    6.34348549881804
C        -0.27490203976324    3.04957038329987    6.98518913568316
C        -1.32106823299377    2.23361351699901    7.38902065073585
C        -2.54423716528723    2.76099775174021    8.06338284564347
C        -2.32863187948476    1.92850133768236   10.35029505003270
C        -0.85647917174959    1.64584449337731   10.24552779597146
C         0.10909820524160    2.58205330603696   10.58064991596062
C         1.44764330314666    2.27048183510873   10.45362033564167
C         1.83648308935941    1.02989471225025    9.96530776393507
C         0.88938801733609    0.09185634515389    9.59983841603278
C        -0.49188158225528    0.37798925209660    9.76432961741676
O         1.15852753684127   -1.13069207705598    9.04657054590433
C         2.49885080335041   -1.56326791688615    9.01696279210058
H        -3.99531246560923    1.92789869009025    9.17122494891893
H        -0.28224206795013   -0.68668236081837    6.37725159989661
H         1.61594956563063    0.63138836147039    5.60962662706061
H         1.64661825082914    3.09643784646830    6.03012083451119
H        -0.31801360606593    4.10855925232373    7.18193920296947
H        -2.35933677759042    3.73361519838273    8.53159383268243
H        -3.32563511203101    2.86364783468799    7.30263348714115
H        -2.78361697156195    1.21440310758225   11.04436658761513
H        -2.48913490904634    2.94479801026661   10.72919389088084
H        -0.18880455597207    3.55168123643808   10.95168226078350
H         2.20108818402626    2.99236887618307   10.72480546330513
H         2.88808172462789    0.81799138950679    9.85702036769998
H         3.10741870523565   -0.94028475340770    8.35305950367978
H         2.47448514344222   -2.58152166807502    8.63182432178468
H         2.94142429158030   -1.56704450132618   10.01662144835649
N        -4.13360924027150   -0.90944088528294    9.18084097651823
N        -2.46192880330215   -1.76391849991405    7.32407066901960
O        -4.06710626543193    0.51609261831035    6.93487297041218
C        -5.17701760206653   -0.37791856424205    9.81522860052268
C        -6.25870486473395   -1.12097417911154   10.25047108127571
C        -6.27279674887718   -2.48730366558334   10.02182363289436
C        -5.18443409725088   -3.04933046853573    9.38001108509960
C        -4.13824239891506   -2.23348972801027    8.97599077482891
C        -2.91514792437133   -2.76101253001871    8.30158049999600
C        -3.13060464501430   -1.92871975755415    6.01463028300381
C        -4.60274501443325   -1.64601332519440    6.11943697956536
C        -5.56839025948385   -2.58220952766454    5.78446666512084
C        -6.90691467365866   -2.27058503366781    5.91161313795147
C        -7.29567242047626   -1.02996879297725    6.39992160945650
C        -6.34850180007646   -0.09195344653108    6.76525175075787
C        -4.96726159777612   -0.37812646490145    6.60061259149807
O        -6.61749177791629    1.13060933886890    7.31855755841105
C        -7.95780586967950    1.56317111840454    7.34856517181872
H        -1.46393274526657   -1.92801334260950    7.19373303244344
H        -5.17680343557558    0.68691427529805    9.98777528214807
H        -7.07493346058760   -0.63089694688750   10.75564111251625
H        -7.10584829793420   -3.09598589114922   10.33533304155487
H        -5.14144553698401   -4.10833668721783    9.18334439392965
H        -3.10021517648496   -3.73360625438492    7.83338899845896
H        -2.13375984708772   -2.86379058903561    9.06232154001005
H        -2.67560597064087   -1.21470995436461    5.32047982027147
H        -2.97013669348946   -2.94506483415483    5.63583611404032
H        -5.27056565878550   -3.55187308111804    5.41346130026548
H        -7.66041030150904   -2.99246602028045    5.64054841633773
H        -8.34725355019244   -0.81803564578017    6.50832603429214
H        -8.56618358337962    0.94011419702017    8.01257386558717
H        -7.93333852978408    2.58138910498530    7.73379189870041
H        -8.40064939605614    1.56703949226780    6.34902743790368

