39
CSD_code = KEHNIU | q = 0 | S = 0 | Stoichiometry = C14H18MoN2O4 | MND = 8
Mo        3.52015909147858    0.70528268276681    2.40767229328905
N         2.62099546807104   -0.76030224916061    2.74768309594499
N         3.56767555885378    0.17720051831938    0.72986659833634
O         2.06977003185104   -1.77416789369084    2.98328842929368
O         3.60743202406952   -0.24417962255777   -0.36343349633645
O         3.24833625756349    3.09029365617897    0.67218652984976
O         1.25800914831162    3.98149972637580    0.94279349207797
C         5.31540744321858    2.21883588338656    2.74157365141865
C         4.24677465873232    2.64871119420137    3.54374668597677
C         3.96618623938793    1.63593941975206    4.49731348880570
C         4.90642238463622    0.59678039485195    4.30249324980091
C         5.72350432482753    0.94203490419352    3.20291585885884
C         1.76004040582009    1.81445323473476    1.94276694236516
C         0.45751895908246    1.57913611189078    2.09366903382539
C        -0.59997383631162    2.49465421923667    1.51572408424832
C        -0.04097173326565    3.93907642199513    1.57002962435174
C         2.13339256343837    3.00141503208423    1.15686269885761
C        -1.89894073179325    2.34201315702754    2.30948676017133
C        -0.84000248766501    2.04179602041009    0.06589529706622
C         0.12591207843036    4.43324395329059    3.01304819436055
C        -0.87213208585174    4.94912939985980    0.77856047058564
H         5.83057436268852    2.81990013014262    2.00229111109922
H         3.81107918452381    3.64146761315719    3.53177822379194
H         3.33123832694662    1.75252742858738    5.36979822077059
H         5.05787135521063   -0.25012289225140    4.96313063581592
H         6.61809719061686    0.41620402630375    2.89213719654149
H         0.09836564573526    0.68308412317516    2.58826706437502
H        -2.27580502328490    1.32975669593652    2.18279524155070
H        -1.73753624572415    2.51266616332973    3.37009683653542
H        -2.65932690249625    3.03207587695063    1.95379701727774
H        -0.99344538713271    0.96494569275462    0.04243295822646
H        -1.72105464638672    2.52391251089162   -0.35001540455022
H         0.02263279115490    2.27260379957024   -0.55525856509504
H        -0.83961884196262    4.66809840295800    3.44952494813582
H         0.62412102435717    3.68424257420392    3.62583066480940
H         0.73110143066267    5.33731059701219    3.00633525731697
H        -0.43315124227750    5.93637340763992    0.89434569403001
H        -0.86550058162386    4.70000488818789   -0.27744086356044
H        -1.89505820389921    4.97440279631280    1.13991077976875

