93
CSD_code = KEHQIX | q = 1 | S = 0 | Stoichiometry = C38H46O7OsP(1+) | MND = 10
Os        2.32825267804035    3.54650590038929    3.55464598941437
P         4.23809191381640    3.46692275908822    2.21503079593798
O         3.10021930152813    1.72859723484688    4.12934682815683
O         6.10263488511379   -0.03144777721756    1.66417241259213
O         6.26568585334585    2.02913334154914    0.78942297241686
O         1.94676244393094    0.24977364116393    1.47926703418387
O        -0.12097402734267    0.46797430453096    2.36095903383388
O        -0.34023792108696    3.83379506390714    0.06981340459818
O        -0.16615564495342    5.60879595040501    1.44234345557088
C         4.01440209250322    1.11923681936102    3.47284557986189
C         4.72240277268265    1.74406567290240    2.46330377201132
C         1.19367492981488    2.34629005273812    2.24090749995190
C         0.91318833302760    3.55565192351941    1.96656315522211
C         5.73722970398272    1.11683134273595    1.63599083710946
C         7.25115667175627    1.53790882047985   -0.11211149545663
C         4.31859338291678   -0.31572890730283    3.85898672056968
C         1.17541306395027    3.69316684079814    5.96815684589357
C         2.50363612287152    4.13283093314041    6.13039451813061
C         2.95539438065921    5.22905954510755    5.37463566551874
C         2.08915915119508    5.90755403762437    4.48591774271486
C         0.76861293534670    5.44212816405191    4.35555173897061
C         0.29410697891641    4.34561329546587    5.10693946411514
C         3.36089530421560    3.51415150250917    7.18824861306548
C         2.49814346517012    7.18693702565495    3.82302477020969
C        -1.14145988278306    3.93927297665167    5.02680158262432
C         5.57588973520096    4.56886593917909    2.92447093911913
C         4.09146031866519    3.92253111872205    0.42296871145478
C         6.07427352988169    3.91743616834281    4.21197803043627
C         6.74029716246521    4.87778300042916    1.99026730838927
C         3.28243671662543    2.89383041405963   -0.36000342120892
C         3.50539183146623    5.32728795267063    0.30897213176537
C         1.07453559414359    0.90331051850995    1.98589570694169
C        -0.41366250952155   -0.90910952669955    2.12134550980160
C         0.08437815608904    4.46393321711802    1.15693392222260
C        -1.17220002348338    4.58187218850030   -0.81541557112265
C         3.15950615778540   -0.98870791073933    4.55417404854936
C         2.72663535339886   -0.58957914381525    5.81156371808832
C         1.66792127046251   -1.23115171725101    6.42889553511612
C         1.03825710327224   -2.29398449406842    5.80342516939280
C         1.47285646772721   -2.70772468351160    4.55547611599599
C         2.52262456379112   -2.05385416650148    3.93161718101766
C         5.56969812352065   -0.37779271144132    4.71050370948979
C         6.43458414940280   -1.45469204473666    4.56993361083691
C         7.56441975041626   -1.55152168356604    5.36202570813174
C         7.84549800255567   -0.57308159262504    6.30093906611961
C         6.98912661330306    0.50419302333976    6.44405881056995
C         5.85703395032274    0.59869972014352    5.65363073100236
H         7.61468972199216    2.39681211127977   -0.67066903892450
H         6.81079208346986    0.80258599684992   -0.78725090457586
H         8.06588678534223    1.06372753184229    0.43810607714382
H         4.52464147596003   -0.84539232756722    2.92471432857477
H         0.81675301646574    2.87582589925897    6.57840228183428
H         3.93687250125635    5.64332745564747    5.57332114004672
H         0.07647701152402    6.00165711534620    3.73843524948640
H         3.30793025322259    2.42780872062219    7.14523816674660
H         2.99314664423675    3.81895867526652    8.16890440886449
H         4.39890350825593    3.82733012820858    7.10422286144428
H         3.57452694424254    7.24469877574191    3.68260005222233
H         2.19826959191631    8.02435263035692    4.45438462391458
H         2.00131998164201    7.30155003198083    2.86256667321879
H        -1.60108510975398    4.30257086415652    4.11097549839341
H        -1.68720502105707    4.36411654675430    5.87020404475681
H        -1.24613551519054    2.85735224966967    5.07384100229709
H         5.06531034419372    5.50930137739745    3.16641090173631
H         5.11490324739474    3.92401992108853    0.03939496735275
H         5.23448757377670    3.57945909435990    4.81990827620805
H         6.67230435980574    4.61773345293215    4.79197216602921
H         6.69065111878065    3.05089115906338    3.98193450562079
H         6.42513737160507    5.45074997130656    1.12302644727478
H         7.21780847849166    3.96318165176684    1.65575697705094
H         7.47750727109138    5.46861655600864    2.53157908927471
H         3.55944176695792    1.88107514019616   -0.07512224198478
H         3.46918669170764    3.01525625205421   -1.42478193535248
H         2.21707814642592    3.01080834523519   -0.18541979865679
H         4.15620102805308    6.06756263539391    0.76820493817689
H         2.53256797074707    5.37868854530085    0.79443414037672
H         3.38133914045469    5.58962535506649   -0.73929598817002
H        -1.49327862911048   -0.97853908648215    2.01273484625387
H        -0.07483707137650   -1.50485546182738    2.97085868380971
H         0.09032261780260   -1.24868599329946    1.21560060347139
H        -1.28615566876683    3.97055236087367   -1.70606311258408
H        -0.70485398566447    5.53787305250076   -1.05747584379206
H        -2.14315733345432    4.76781074225817   -0.35345641587122
H         3.23160833522320    0.21817536729045    6.31821729938180
H         1.34083014508891   -0.91204393672374    7.40798296984345
H         0.21944640500083   -2.80241366710757    6.28978473844424
H         0.99936813456057   -3.54913606352823    4.07013638819883
H         2.85122675837947   -2.37336656301010    2.95372379740084
H         6.22437206184776   -2.21338128524552    3.83272556273170
H         8.23025011824315   -2.39269650447991    5.24396054467081
H         8.72871531363436   -0.64817046703692    6.91667572035691
H         7.20244460105942    1.27321986758708    7.17239375313019
H         5.19599890840218    1.44514172549697    5.76868594483844

