96
CSD_code = KEHQAQ | q = 0 | S = 0 | Stoichiometry = C42H49CuN4 | MND = 3
Cu        4.92787488500452   13.69369819654432    5.66117254837863
C         7.87616484093386   11.57359558225029    7.99759875762500
H         8.63626735651973   11.58014003636128    7.22018404533107
H         7.66080608257267   10.54176420646508    8.27315402803999
H         8.27380814025050   12.07508057118741    8.87930524488217
C         2.48133885885782   11.78654159057983    3.52371753847285
H         1.90369323998253   10.92275548884701    3.84100580204052
H         1.86546954806144   12.39170750771245    2.85715084029456
H         2.72652610068014   12.39347653020485    4.39394254250680
N         6.51870908800014   12.78736534968713    6.34854727847890
N         4.43650346188202   13.68690252584167    2.70319967867005
C         3.01361694940988   17.24840052140857    4.85739406999227
C         4.17062983897060   19.10319569533000    5.89103160092144
N         4.25337412505243   15.65382473930941    3.52168088724679
C         4.37761493081390   12.99266700762094    8.42730201839414
C         4.09899217306563   14.51821280638559    1.66556720350236
H         3.96087521466792   14.15295415919512    0.66874073633969
C         5.42291223034680   17.48179227734214    4.60376981829657
C         4.23432396641838   16.79215235058803    4.36735192630529
C         6.70286906544737   17.00652123297113    3.98746186573534
H         7.55257860620221   17.53086443485368    4.41504708592925
H         6.69102765718517   17.19189079117037    2.91225242528898
H         6.83293146308247   15.93686216586488    4.13954826499787
C         3.98312495327165   15.75916068743269    2.18209276754289
H         3.73997537139660   16.69631288908205    1.72501865666577
C         5.59162062413619   12.31913743539726    8.50162663592169
H         5.80672780661214   11.82186233062154    9.43665618884608
C         3.73651939000088   11.35993547549946    2.83009797221051
C         1.75618235566370   16.49678027094386    4.55210789871080
H         0.90866251201203   16.94369100151719    5.06255094239709
H         1.85213043749458   15.46394433302277    4.88348539248201
H         1.55830183705498   16.49262593580582    3.47985597550652
C         4.53190452198506   14.37392642515334    3.86931481493859
C         3.00191646292324   18.41195507067083    5.61148732846021
H         2.05920562974256   18.78126929970685    5.98689750814089
N         3.94722758555562   13.63468929473177    7.35773148229295
C         4.69166535108605   12.31075849837553    2.47354460843346
C         6.05427900873582   10.61631214824916    1.48658942954280
H         6.95377441106916   10.32842867548219    0.96164182032943
C         0.40042154341476   14.70656708097551    7.37766017096279
H        -0.58154467939360   14.29151717934557    7.19513277694101
C         6.87000367658203   12.99270464593902    1.42703835102006
H         7.78814367824396   12.52511244755644    1.08447167744439
H         7.10292732412299   13.61912862649800    2.28654411308749
H         6.49235598263377   13.63438330479232    0.63057914970705
C         1.51250802842041   13.88764349666327    7.23861235607300
C         5.37236631920956   18.62717173681494    5.38101819053250
H         6.28539657915143   19.16818478509222    5.58499039590500
C         5.85951381074918   11.95264925756133    1.80202065131127
C         2.78595799761533   14.41660903446287    7.47555791192525
C         5.12380151835357    9.64753794385724    1.83091103875293
C         2.92225651438374   15.76194696038743    7.85502918755592
C         1.79230209959015   16.54498587584559    8.00731388190599
H         1.90146292927393   17.57146958099734    8.32861204351399
C         5.35016012309032    8.20384537120531    1.49913122113619
H         4.47004179221017    7.77750595710056    1.02093700652866
H         5.53990597091666    7.63633916172587    2.41019388680781
H         6.20267905350735    8.08406962462206    0.83549204203591
C         0.53130357283753   16.02516977472893    7.76893288185353
H        -0.34572259731732   16.64381670782004    7.89582470746551
C         3.97394479787751   10.03393220196053    2.50751410623758
H         3.24392601506345    9.28545600444484    2.78072741281422
C         1.32709592485765   12.44214296480761    6.87568796244198
H         2.28835356848170   11.96246971114154    6.70730702865811
H         0.71650964998049   12.34752714364895    5.97835371357589
H         0.81329542577184   11.91395936781630    7.68018897902459
C         4.15200600901216   20.35227565677238    6.71914015913824
H         3.14505604586119   20.58022005561852    7.05876287858172
H         4.52320397638410   21.19755010903818    6.14071153935430
H         4.79680081004588   20.23896728290426    7.58971486126719
C         8.47873912021937   13.79431629144077    5.34309357685866
C         9.48882296253322   13.74646430822882    4.39615631887252
H        10.17555914309287   14.57783060304148    4.31183693701226
C         8.78041012370521   11.56424339044462    3.71022239315511
H         8.91445893794130   10.68697796176910    3.09254595472325
C         7.74811669049797   11.58865166801171    4.63245242172582
C         6.82769945282744   10.42021323169709    4.80860212657214
H         6.96485584502468    9.69547808042241    4.01073761238651
H         5.79135203860745   10.75624519104650    4.81238272685078
H         7.01712619807123    9.92755141084780    5.76242771585660
C         4.29036665012386   16.31522859666142    8.11186284545597
H         4.24466759615874   17.38092012658588    8.32117525324447
H         4.92345800655564   16.15152223606800    7.23940885145747
H         4.76244996038369   15.80996506473538    8.95471790561620
C         8.35750302530738   14.94204761466008    6.30071354402418
H         8.92988799674279   15.80082656393699    5.95787762537176
H         8.73568025843001   14.64664528833759    7.28055132675809
H         7.31336161124840   15.22516669453300    6.42999268131031
C         3.51716459261302   12.98833889978246    9.66947524073771
H         2.57285795481941   12.48421109493443    9.46925010316894
H         3.28339871686942   14.00684824359223    9.97722817130378
H         4.01655869762007   12.47910566224057   10.48912973256411
C         7.58632393375117   12.71844780851570    5.44644232385211
C         9.64254403439848   12.63946163886661    3.57969363481814
H        10.44237434833162   12.60974847381954    2.85375343382328
C         6.60780256095379   12.26392926415317    7.54673162859489

