35
CSD_code = KEHQEV | q = 0 | S = 0 | Stoichiometry = C14H14ClMoN3O2 | MND = 8
Mo        8.31074132423323    9.45463788645592    9.11398869972200
Cl        9.00734528843414    9.21550845432213    6.74938989266277
N         8.55210971241402   11.49664851175174    8.63327289501944
N         6.54575678589925    9.96015285200717    8.16375335918855
N         5.49804315935568    9.27912187435266    7.72358729098112
C         8.11195890459789    7.52777755328229    9.18541478022684
O         8.00322690229566    6.38679264972031    9.24802886422524
C        10.13789840330826    9.05069039520106    9.63005032712504
O        11.20502702902055    8.78502546107820    9.95491636631066
C         6.81346515117463    8.92102398731518   10.81713188853247
H         5.74238569675788    8.88328595983350   10.62841842049516
H         7.15649641510441    8.10978266424177   11.45215512915994
C         7.38418634158734   10.19878410466313   11.02104629545729
C         8.77478057414129   10.17076624148404   11.28299879297017
H         9.14759864818905    9.37757013515747   11.92501658788222
H         9.26045774662346   11.12616277316422   11.46553616600978
C         6.56631342968825   11.45991438532113   11.07316053862484
H         5.71112039012199   11.41936648970651   10.39735358014017
H         7.16574585035572   12.33891626622885   10.83580854543658
H         6.18118871619099   11.58399101147372   12.08824420083868
C         9.66810677076631   12.20171721757714    8.80969483706100
H        10.45558703695978   11.71395485162870    9.36891620641465
C         9.84908474677038   13.47851921568566    8.31787429216789
H        10.77873901852919   13.99636649265939    8.49135188980950
C         8.82003467740029   14.07866885619505    7.59714820525920
H         8.92803420310047   15.07841065077972    7.20590805578602
C         7.66754364641589   13.35385237484929    7.38051837973414
H         6.84892996580679   13.75964298813929    6.80754130840700
C         7.56999438185984   12.06198811077051    7.89892412575270
C         6.45879410128815   11.18615475792504    7.64572983378571
C         5.29293443353210   11.28048945921355    6.85410187291932
H         4.94203023935162   12.12984429711273    6.30614435561951
C         4.71688075632048   10.03797283447863    6.92236536739559
H         3.82542676965369    9.65665525763586    6.46731161137588
H         5.40903278275490    8.29484297859884    7.93139703749649

