34
CSD_code = KEHRIY | q = -1 | S = 0 | Stoichiometry = C10H16CrO6P(1-) | MND = 7
Cr        3.75609991542108    1.25492667950540    2.09473433451871
P         2.10701517220261    0.38914954198187    3.44865906939238
O         0.53513641403719    0.55051109986422    2.96704961012968
O         2.06528207642507   -1.14044310383525    4.05543253226074
O         1.85433926180992    1.12117953811633    4.89695523978384
O         2.73334723327368    0.25864147380550   -0.52861139881133
O         2.02802351140797    3.61038406401486    1.46235826598683
O         5.26743351074736    2.86778816150030    0.10169961920049
C         0.16701402178676    0.50684828507992    1.60708845730590
C         1.03903206395164   -1.58130080326376    4.92274615987607
C         1.76367537167975    2.52812103730119    4.92885750703586
C         3.11702115151930    0.56771111695777    0.54199149859929
C         2.69601556193158    2.68930672446478    1.78999590147041
C         4.79373374893852    2.19949648962061    0.94034392685595
C         5.13582209118381    1.82814151421736    3.87566956944291
C         5.02666583875318    0.44133730541566    3.72719102945760
C         5.37627905691392   -0.29347073933562    2.58596312836330
C         6.66464353042304   -0.03787752814093    1.82622484041775
H        -0.90559854220408    0.70926957270133    1.56962149797783
H         0.70965473924229    1.26439754875169    1.03781439726763
H         0.37154727348543   -0.47352389835131    1.17126583556963
H         1.30261829235149   -1.37211861192507    5.96218924188485
H         0.09489568177838   -1.08523766425737    4.68960189659238
H         0.93420872180805   -2.65937411310550    4.78137555369171
H         2.47626352764259    2.97443781248810    4.22505872734200
H         0.75517956568393    2.85188306235185    4.65957420176278
H         1.99120107648662    2.84490619741059    5.94897297733562
H         5.17239001613540   -1.36627001798752    2.66106516468867
H         4.85802515436412    2.23890938860618    4.84447296936745
H         5.98012309905452    2.34854480167231    3.43253956075582
H         4.47644598466910   -0.09191001212531    4.50952253477454
H         6.56393047044764   -0.32380205176968    0.77963546150131
H         6.94827942196431    1.01105654246983    1.86078562679705
H         7.48895598468900   -0.62791941418367    2.25275506139102

