33
CSD_code = KEHREU | q = 0 | S = 0 | Stoichiometry = C10H15CrO6P | MND = 8
Cr        2.58035280692953    2.66138373025181    1.31383263239172
P         1.60421393903339    4.28269983067306   -0.07327105234261
O         0.62813354496887    5.41614940750082    0.53170776555921
O         0.64137687999248    3.80687164270160   -1.28069319658204
O         2.61497151802436    5.13720289678332   -1.02857692398564
O         5.09842516930475    4.05157103962256    2.07708164386715
O         4.07634167505340    1.54816426963293   -1.01077504852379
O         4.53316436971283    0.69292903554751    2.37667986900014
C         0.04509053381283    6.41989960590029   -0.29528025986483
C         1.08305962156566    2.84745484934012   -2.22290532610501
C         3.92222305985847    5.52536187806598   -0.65296081251977
C         4.08365423541575    3.60799025689265    1.73610665602949
C         3.41864020059870    2.00591468439204   -0.17086504123278
C         3.71835264545305    1.42786495193164    2.01370607552908
C         1.28065960354132    3.66060620506804    3.03681386378520
C         1.42958706457056    2.30706954675843    3.20418495971998
C         0.98881406025319    1.35984232510175    2.21883609043711
C         0.35502741674450    1.74351957144171    1.06220586334122
H        -0.16461943218086    7.27351399468343    0.34842079956151
H         0.73101824244182    6.71208157541615   -1.09060807898441
H        -0.88065805052660    6.05076940241900   -0.73664214211844
H         0.27222381237858    2.72350229782948   -2.94034217215478
H         1.97972238546203    3.19433451979328   -2.73798666729143
H         1.29649284074379    1.89292056280081   -1.73615826743266
H         4.57725624274230    4.65340758216887   -0.58553345225565
H         4.28003392092098    6.19079497718490   -1.43914160508514
H         3.92383998520236    6.05401119254611    0.30113530390507
H         1.68624679798839    4.32300952579803    3.78955082778121
H         0.45905447128766    4.07965587869324    2.47501842453255
H         1.93991373149243    1.91958964708715    4.08226061372008
H         1.19547913388602    0.30819261000461    2.40146012937724
H        -0.25940835283263    2.63384552569245    1.02741498378262
H         0.07181592622502    0.98137498023480    0.34842354415957

