46
CSD_code = KEHSAT | q = 0 | S = 0 | Stoichiometry = C17H21NO5RuS | MND = 6
Ru        3.69462190486883    1.47796502599425    1.24471795210531
S         4.31818813763261    3.45588234265082    0.00054366434719
O         3.25098215432433   -0.17458497353722    2.40340746281152
O         7.37363721357167    6.91095324598476    2.18369061535031
O         4.91777970343579    0.22189902651867    0.17002232941730
O         2.09284625848031    0.88297990657782    0.11616985186362
O         2.36109554428569    2.68064095176721    2.21816725426688
N         5.07404421770146    1.99547104786438    2.42252860771232
C         1.43321687524804    0.90488423683305    3.51047564941239
H         0.63310474793613    0.69844372537664    4.20578878350212
C         6.86558723642640    5.79422919666557    2.25033729461559
C         5.66484646817905    3.17701366909231    2.39495862737567
C         6.58717351503878    3.63010207532311    3.38771611976036
H         6.81253404718331    2.95783790792177    4.20587300162596
C         5.39679219187592    4.06967132968082    1.31022354570809
C         7.14722504371929    4.85836912941222    3.32743195076302
H         7.83182977370717    5.19536363226407    4.09141646963677
C         5.94186839979589    5.30158165268627    1.23180560997799
H         5.72220812538429    5.95951542584925    0.40484897323011
C         0.68906625555602   -0.67785789996158   -0.96991489304250
H        -0.06585181677517    0.04612636448825   -0.67441254110915
H         0.44644229883978   -1.64990965166752   -0.54669545223192
H         0.69668643771461   -0.76940788331764   -2.05381740295177
C         3.13987053737785   -1.05498430634125   -0.76167465098917
H         2.93668953261948   -1.96458213811680   -1.30587171800224
C         2.04723908727813   -0.22456811319886   -0.47566974829079
C         2.26487784529057   -0.17157735400611    3.18492013818987
C         5.51307183256472   -1.76508436562461   -0.95217192050536
H         6.50661363577510   -1.41240668189145   -0.68825604513301
H         5.44069531358453   -1.87788415325926   -2.03130121761289
H         5.34520982274743   -2.73712476324097   -0.49448005347290
C         5.63388564007706    2.87766968593293   -1.12842997931846
H         5.13891854757006    2.47485860841707   -2.00696855585793
H         6.22179328515169    2.10553747106117   -0.63926892652161
H         6.25175831904080    3.72897793341995   -1.39872031857303
C         1.52053211130866    2.21608744743116    3.03308662920716
C         4.47335987665804   -0.78285853846740   -0.45238628324578
C         1.95775391531436   -1.49481517013540    3.85975767726974
H         0.96580163801311   -1.83373763208501    3.56990308716368
H         1.97827766272710   -1.37909224097765    4.94067795746660
H         2.69377133360918   -2.23543049050170    3.55817195927640
C         0.49873230130642    3.20237886795537    3.56052287015598
H         0.71539624112382    4.19193233979051    3.16738802990252
H         0.52312290707670    3.22694291849139    4.64719397041265
H        -0.49800285124890    2.90137216105387    3.24584764335190
H         5.38180673090462    1.40111902982487    3.19844598098366

