123
CSD_code = KEHWUS | q = 0 | S = 0 | Stoichiometry = C51H65N2O2S2Y | MND = 6
C        10.80410301253271   19.95666115621979   11.74791135809096
H        11.85045470525073   20.08324241061677   11.47460783880670
H        10.19294774946884   20.59094067423727   11.10993942970936
H        10.51242263836519   18.92341916346036   11.58000586127417
C        10.57750556587729   20.31742113234067   13.21729718535671
H         9.51821358658033   20.13686645630436   13.44077604363798
C        10.86883143268257   21.80275882145766   13.44438885533661
H        11.86470071481546   22.06545966898337   13.09526022596594
H        10.79993050561573   22.06273705329099   14.49887772572537
H        10.14751104874185   22.40392439786213   12.89507044833468
C        11.41627721584604   19.42734845458013   14.10920384013720
C        12.79077015451661   19.59398540743430   14.16290626326677
H        13.26070371740636   20.35771221739686   13.56126975279103
C        13.57144315803236   18.79952175938849   14.98204205069157
H        14.64194206445187   18.94055229386865   15.01473805082358
C        12.97435649115220   17.83081339937151   15.76476220661544
H        13.59020366211509   17.22226882311762   16.41000481896495
C        11.60270430592506   17.62160672831790   15.73648137392274
C        10.81619475875882   18.41991135033553   14.88819682788380
C        11.00171752826345   16.53932366412835   16.60489401365903
H         9.91462578181075   16.53729193079230   16.47461239445781
C        11.30787645210708   16.80336079202148   18.08176191953548
H        12.36873978079430   16.67745212081102   18.28456136608059
H        10.75593145992819   16.10578255258057   18.70816814973854
H        11.02350697195550   17.81596522135510   18.35889000085634
C        11.50902553503361   15.15444692286171   16.19595661759358
H        11.15971096839953   14.90746270495738   15.19659336170125
H        11.12248865498050   14.40337409471018   16.88120941194228
H        12.59558851738447   15.11156952078882   16.20854920616868
C         8.52980326941920   18.35665677424290   15.65626578763470
C         8.81945079603605   19.07171289343543   16.92270565332310
C         9.57461123026057   20.24008143538758   16.91634085825173
H         9.93579388168832   20.63604647481632   15.98192419670471
C         9.84556879713126   20.90375745129906   18.09870330709210
H        10.43201493172277   21.81063769430326   18.08068288480598
C         9.36508284933125   20.41184849229079   19.30063100196515
H         9.57710612585214   20.93165723043701   20.22334170215273
C         8.61160110045602   19.25017127992299   19.31382696577271
H         8.23543338974890   18.85944509762873   20.24791244108115
C         8.34052002807120   18.58247915627783   18.13377309110741
H         7.76921458849050   17.66947623842665   18.15116942195984
C         6.22820932877701   20.57768580833775   15.40827109241990
H         7.18848321783757   20.26280330840116   14.98709091673709
C         5.36362196915823   21.06977683313305   14.24517394317596
H         4.35704950805975   21.31403911226633   14.57653021641743
H         5.30355067828075   20.30609176398948   13.47384532130021
H         5.81060162757442   21.95774333951915   13.80379140565555
C         6.48860817947279   21.71705190002475   16.39752080584512
H         7.08023284239634   22.49651631678770   15.92205922442713
H         7.03052228422441   21.35465739717144   17.26823268393759
H         5.55317702165970   22.15733808009385   16.73446772663655
C         5.58490056536674   19.40194100447307   16.10855274621728
C         4.36870343913995   19.57875700623242   16.75327048920121
H         3.90423268551212   20.55353637955217   16.75073902170892
C         3.73594677235340   18.53313996993094   17.39657489894497
H         2.78637132450397   18.69181438009750   17.88655141488042
C         4.32871412016800   17.28423929096329   17.41813177534953
H         3.83583030128970   16.47251602027451   17.93215656530017
C         5.54716015615209   17.06342343043421   16.79640830216596
C         6.17414943022111   18.12595028184792   16.11850734919360
C         6.18851746240552   15.69326877731406   16.84658231900092
H         7.20878236490928   15.77091364622210   16.44950517933370
C         6.26926782032808   15.14476288231356   18.27328425829310
H         5.28123300224484   14.90043111916877   18.65639160226158
H         6.72598098958303   15.86522622233062   18.94903243022138
H         6.86979544812579   14.23771465067869   18.28185439164778
C         5.42150839483321   14.71775697465500   15.95189084797856
H         5.88987156428284   13.73667660436610   15.98300513069117
H         5.44497326243057   15.07387329201059   14.92554695313160
H         4.38628582413702   14.62617592322085   16.27676966120421
C         4.39798495006347   17.27845899090978   13.16478722079172
H         4.69805616759651   18.26444680129158   12.80232848355161
H         4.31386250925020   17.30837397341861   14.25851734842382
C         3.10845725549782   16.78142490764589   12.52343558964990
H         2.22928219358781   17.11088098122670   13.07078061374569
H         3.04222792295396   17.12781072405307   11.49085225277474
C         3.31464411443552   15.27073901993517   12.56299197549939
H         2.70183985545247   14.73370754306366   11.84351001360910
H         3.11491718465990   14.88633042798012   13.56354847388831
C         4.79975158997197   15.16739809792312   12.23798184844697
H         5.27397539612617   14.27618080248007   12.65892470421435
H         4.95296197201957   15.18585496072349   11.15030620171476
C         6.25321631306085   18.37177189246604   10.53813616274756
C         5.12177642645115   19.06829800974963   10.11280946314322
H         4.91190216617727   20.03636478392551   10.54250578837734
C         4.28338582340441   18.51916658835526    9.16265411312555
H         3.40449277657680   19.06390290270756    8.84837145557625
C         4.56083908360612   17.27740802229124    8.61148946064722
H         3.90106692789204   16.84959991283098    7.87137673694806
C         5.69707787802805   16.59176562323058    9.01218649855775
H         5.93035587851745   15.62969312004405    8.57612560637989
C         6.53818991730512   17.13403705731957    9.96503815570943
H         7.43635540194794   16.60661801923247   10.27543080002368
C        10.24504937189995   16.52266932598716   10.22334470481767
H         9.78479453792113   17.43451399346711    9.83190707856840
H         9.74151115937786   15.64504433990538    9.79573425742714
C        11.74537166837965   16.44750103887355    9.96621848549735
H        11.97087438492968   16.01218217936720    8.99600053816986
H        12.19380766661181   17.43945503328908   10.02825610255819
C        12.20309240441703   15.58393396961565   11.13705020388025
H        11.98096896115849   14.53342639580566   10.94288411015162
H        13.25990602941699   15.69256106759868   11.36590286898717
C        11.31966839724265   16.11056080228787   12.26074051190719
H        11.76630701528030   16.99216978603368   12.73773136774266
H        11.11058938583435   15.35837480733559   13.02482120580657
C         8.95359186946534   13.69486521115758   12.59022937661565
C        10.00087728852116   12.77352058271286   12.60896794306343
H        10.51720883475850   12.58812395480973   13.53899236125022
C        10.37186452168553   12.11822413482091   11.45122880859213
H        11.19220995316106   11.41508557928604   11.47597093652224
C         9.70219481752108   12.35776298565923   10.26095431794289
H         9.99773952499956   11.84696816530887    9.35658932673642
C         8.64390596232884   13.25291489790475   10.24202944236348
H         8.10480009910958   13.43365540524768    9.32172712762914
C         8.26954825338730   13.91406621982612   11.39633292080299
H         7.43270741655333   14.60737053470054   11.39047822716643
O         5.42293639508553   16.33101924740802   12.80829501977385
O        10.07352416049292   16.49741042031272   11.65110865700629
N         9.44608264254613   18.16637613533505   14.71771665760711
N         7.33454738711734   17.85737568027576   15.37508989791995
S         8.49749125070571   14.52688426998932   14.06690828533280
S         7.30450226737272   19.07379600195975   11.75524201379872
Y         7.98979595570661   17.01668184308317   13.29020569269936

