68
CSD_code = KEHYEB | q = 1 | S = 0 | Stoichiometry = C31H31FeNO3P(1+) | MND = 8
Fe        7.58094409809009   -0.35700225117346    4.48230995011611
P         8.71954395911807   -0.20701050061688    2.60758336452568
O         5.04670284362945   -0.88036804196966    3.19936625653131
O         8.84666012481637    4.03519350402645    3.58694947856996
O         8.14260558130409    5.95685059529334    4.47408752743511
N         7.30060654830501    1.43891636778375    4.55034656165080
C         6.06642855619665   -0.64285246168816    3.65087280021977
C         7.10127068734652    2.56412548968950    4.70184302310305
C         6.83581247914842    3.96094219607467    4.85407389790882
C         7.99936600131880    4.78501747634892    4.29700654763908
C         5.48159456241428    4.34939829599657    4.15694948377710
C         5.07414641823382    5.74650221235101    4.61798114711379
C         4.41234660459851    3.33661504165766    4.57082098475675
C         5.67153518895745    4.31548776249133    2.64144549542795
C         9.22249917337608   -0.80782194631358    5.90031128276251
C         8.83698791499618   -1.99555372174543    5.22016249193941
C         7.49114886355248   -2.26998476079936    5.55096194593044
C         7.03825795555294   -1.24985868719459    6.42610649794104
C         8.12084880602795   -0.36966986418905    6.65900650023854
C        10.82868872621948    1.15649632490169    3.70927053056050
C        12.14740077592566    1.38336847347223    4.05277449452832
C        13.12816039459352    0.48033652078614    3.66724023958344
C        12.78635704227229   -0.64901550632734    2.94246829675378
C        11.46695137243426   -0.88100585067283    2.58970860681213
C        10.48564639298322    0.03089410259097    2.95875475965776
C         9.26712263820183   -1.53578505500355    0.23055539640948
C         9.20516677560548   -2.60106869170684   -0.64741019152610
C         8.51090656285475   -3.75033617459550   -0.29931338352989
C         7.87427026752292   -3.83421624195195    0.92806684200057
C         7.93500936063442   -2.77202534419548    1.81353352230443
C         8.63587680359432   -1.62206938761211    1.47114997134604
C         7.01895676397391    1.11697799957823    0.91332218918030
C         6.62693236322634    2.07994188557246    0.00334381246780
C         7.50598945991406    3.09115277590164   -0.35532763608198
C         8.77672125197427    3.12881879304196    0.19253219169362
C         9.17830928909185    2.16231492613081    1.09978480131503
C         8.29785561430727    1.15178524989156    1.46801585099057
H         6.74193941650653    4.19758468824173    5.92050845498908
H         4.18942240859434    6.06541240830232    4.07362580057469
H         5.86493406026287    6.46880721269236    4.43624254214220
H         4.83961212166600    5.75175466726628    5.67988035523726
H         4.32676709850812    3.27734202569423    5.65345186450833
H         4.63774727828530    2.34418919924773    4.18459219665510
H         3.44899980967826    3.64601672944770    4.17431437051573
H         6.34606827289585    5.10361325127605    2.31381397077041
H         4.71565336359233    4.46730926759619    2.14734304799952
H         6.07533925398906    3.35594306076997    2.32255136976605
H        10.22143497159140   -0.41023296259598    5.94802243743790
H         9.49605576343006   -2.63835519304248    4.65854568549163
H         6.94143297448446   -3.15882802502156    5.28906660151658
H         6.09100708215094   -1.23406514534295    6.93769584357903
H         8.11669030741014    0.46275880278968    7.34256992434753
H        10.04740044392407    1.84063665616762    4.01582673414139
H        12.41469400294394    2.25785154735876    4.62708381314873
H        14.15752099235797    0.65542578345686    3.93900776306674
H        13.54882975599658   -1.35530341506432    2.65187813210538
H        11.20411169527656   -1.76570474641775    2.02758459165313
H         9.80076205808622   -0.63369268137758   -0.03748017949825
H         9.69587472737187   -2.53526127529934   -1.60638794610121
H         8.46285877916779   -4.57893899853129   -0.98863302792919
H         7.32829181284969   -4.72635068996227    1.19415863663150
H         7.43357043822280   -2.82300731232690    2.77035186470145
H         6.34200382335465    0.32065940144532    1.19133415089516
H         5.63839705974699    2.04355935853400   -0.42793856604903
H         7.20071647024548    3.84399179639054   -1.06520701860306
H         9.46509994278648    3.90860234384907   -0.09724368578224
H        10.17817868231926    2.18833905984516    1.50707151834566
H         9.56075690999967    4.58265167878323    3.21861322172471

