47
CSD_code = KEHZOP | q = 0 | S = 0 | Stoichiometry = C20H20NO5Re | MND = 6
Re        7.21309744989143    6.71569782286343   11.21210515617890
O         5.33455253804894    5.73820975862538   10.99692357772317
O         9.83519330011595    8.31600287598032   10.87334462221423
O         5.70554643162195    9.38930113502291   11.59844524743109
N         8.04075703394614    4.79939518151973   10.66958737827153
C         6.28173348407497    8.40646073589155   11.48534870809806
C         5.02937703711713    4.49841443873269   10.88858308238860
O         7.60671640233435    6.23281569369285   14.23299460597969
C         5.98383838998148    3.46236180411458   10.65359528952689
C         7.37786191351604    3.69884381658973   10.52305694705807
H         7.95061564646139    2.80163367980811   10.26237060569735
C         3.24384530853999    2.83037772562007   10.83024740131464
C         8.87546152093385    7.70145436390708   11.03672342526157
C         7.48567750130593    6.45901777053368   13.11515413584029
C         3.66223038312835    4.12842138791845   10.95986585550477
H         2.95129266002958    4.92331866102570   11.13809477259194
C         5.52347910267310    2.13716551245779   10.51727690729412
H         6.25350474843257    1.35755752734209   10.34233405335809
C         4.19801473518475    1.82141477565815   10.60406003871451
H         3.87141086569126    0.79738787134258   10.50056927352851
O         6.67476406687465    6.76039215628429    8.85005497684058
C         9.46342931966403    4.70618712308667   10.39516771607195
H         9.80932900260969    3.66735419299037   10.48507955892968
H        10.01002975742927    5.31497599164257   11.12091539383513
C         9.77798945534359    5.20564257017530    8.97308118271384
H         9.42881953282845    6.23643640645303    8.87760395312493
H         9.23365856730809    4.58825734378492    8.25348478813219
C        11.25407488530256    5.13151933575665    8.71315448713875
C        12.09641330774216    6.14182980074148    9.16130073108901
H        11.67888369930898    6.99729897814469    9.67161769516326
C        11.80532463061962    4.03759283535332    8.05948434801168
H        11.16040964038652    3.24489027004851    7.70556558128772
C        13.46151280481380    6.06054897806355    8.95416666618979
H        14.10543916952881    6.85335235079816    9.30521779983876
C        14.00231515418275    4.96732609567701    8.29830612892844
H        15.06808107418178    4.90445459815393    8.13555115919535
C        13.17089715111168    3.95564738226532    7.85051409581967
H        13.58594422907494    3.10053776501336    7.33699005868804
C         1.79578264039580    2.46371460279100   10.92564355999790
H         1.63786925003932    1.77859738016060   11.75805119204796
H         1.47300003015015    1.95840533235850   10.01570042035510
H         1.17688537249297    3.34429116284436   11.07701537678972
C         6.64447611043426    7.88979043986026    8.00031251137480
H         5.98728143800564    8.67368254777792    8.38773406182083
H         6.31365009093772    7.59820322492498    6.99901256891968
H         7.66001117708711    8.27916358980560    7.94138501815780
H         5.77612198911445    6.39705500639617    8.93100788555715

