77
CSD_code = KEJDUY | q = 0 | S = 0 | Stoichiometry = C40H31BrO2P2W | MND = 6
W         4.61013179928791    4.30349955668564    1.62253903494596
Br        4.77735892757252    5.74391712634053   -0.49484546735885
P         2.74343759706615    5.73079336162688    2.32497280217217
P         2.72567859680890    3.19619580475482    0.51873800243195
C         6.00370382076322    5.26160080394057    2.66388521016254
O         6.75893878811542    5.66322601437756    3.43515620988731
C         5.98765806321853    2.98207442584223    1.07064576877425
O         6.74164189001888    2.11974103482846    0.95309040082156
C         4.60717067852674    3.23408742123919    3.19747987001833
C         4.78269121122341    2.47829046587223    4.34592006255198
C         6.07112600203140    2.24027321838320    4.86641328372697
C         6.23529848614340    1.50321216261186    6.01584899555099
C         5.14073619333381    0.97202605041974    6.69542689532900
C         3.86583588154044    1.20042256450516    6.18290258513659
C         3.67935138906215    1.93534757087201    5.03552648905260
C         5.33380992274005    0.15499632899149    7.93481433984691
C         1.32322834040617    5.49214179655460    1.19750184995641
C         1.31396799455643    4.35179210464208    0.38776201297333
C         0.24185989145258    4.12494353478631   -0.46996206743982
C        -0.80447396005754    5.02798973311297   -0.52775793061162
C        -0.79309966822542    6.16033189790766    0.27288892449362
C         0.26359917441302    6.39158044022461    1.13509371007075
C         2.08209614720427    5.15351067573971    3.91881230156761
C         0.80049011709558    4.65167675276208    4.09879286052945
C         0.41758881395993    4.16652864806560    5.33849096810057
C         1.30241231838186    4.19129057670744    6.40212866228516
C         2.58292783220396    4.69530368531982    6.22822945728681
C         2.97483189782687    5.16436972844567    4.99013358808049
C         2.75253696959774    7.54600136847191    2.51288245516262
C         2.99925853442846    8.30510113785554    1.36899480408287
C         3.06721088795849    9.68269514205318    1.45221150433202
C         2.89329730665453   10.31491689046511    2.67309515605972
C         2.64950935883956    9.56445981684440    3.81120357834414
C         2.58131560063425    8.18437642539392    3.73719523966733
C         2.75940151878021    2.46822146040375   -1.15283109642973
C         2.82540588498995    3.33570064956214   -2.24286822504882
C         2.93413743600658    2.83078506178657   -3.52445866824197
C         2.98142662705195    1.46156981050004   -3.73116340078678
C         2.92117354529922    0.59706728218869   -2.65079981321697
C         2.81582710775093    1.09407684089697   -1.36397229896363
C         2.04454846321149    1.85113814729912    1.54020983220838
C         2.95459170640063    0.88095725246051    1.95786454379569
C         2.54303409645489   -0.15808936588985    2.76960946339549
C         1.22333701096877   -0.22489808912359    3.18992003263379
C         0.31870665930798    0.74178902179226    2.78633145906943
C         0.72247898951831    1.77516702460778    1.95747574016351
H         6.92326207709975    2.65171090314084    4.34464096357731
H         7.23072793612849    1.33354665362870    6.40165618960048
H         3.00572972439980    0.79507914437500    6.69788347320878
H         2.68562766873294    2.11059593717334    4.64920538140772
H         6.21997501055949    0.47625769984975    8.47742525203342
H         5.46446062761496   -0.89584793149230    7.67228453208543
H         4.46885226655652    0.23182377172099    8.58992774704087
H         0.23582639341456    3.24272649830803   -1.09575482644967
H        -1.62986466637889    4.85032849504370   -1.20111951804906
H        -1.60924194903671    6.86570821286614    0.22291524407607
H         0.27459705737695    7.27393634986964    1.76028949677310
H         0.10044752111770    4.63662214508688    3.27526864840525
H        -0.57794447366012    3.76852977807985    5.47156830172068
H         0.99850606239418    3.81279726219149    7.36669007340281
H         3.27733184424425    4.70865985624889    7.05504279744897
H         3.98125119054495    5.53598863887842    4.83572462520838
H         3.14321039792696    7.81660808110276    0.41511885134727
H         3.26145732385029   10.26238596569062    0.56238994082200
H         2.95024552344371   11.39137646936756    2.73861586918612
H         2.51300526160301   10.05441389296653    4.76440900163627
H         2.38977176998795    7.60658445763062    4.63043588513864
H         2.79932869346744    4.40518201504041   -2.08683532217762
H         2.98825815044187    3.50953307726535   -4.36222958547954
H         3.06903064678507    1.06796600242550   -4.73297102702290
H         2.95973262186032   -0.47095979834452   -2.80877309102907
H         2.77080359806225    0.41307880083762   -0.52549473327740
H         3.99091588139434    0.95941891696300    1.64989860840810
H         3.25245433891992   -0.90776145867142    3.08707986885566
H         0.90288108103317   -1.02814032075609    3.83657843730250
H        -0.70863064148501    0.69288359441201    3.11737317574213
H         0.00679521108631    2.52066752595681    1.64032661248362

