40
CSD_code = KEJHAL | q = 0 | S = 0 | Stoichiometry = C17H20N2Pt | MND = 4
Pt        5.70558726413684    6.92774206676184   10.78670694479762
N         4.18983203661796    8.37944614270201   11.15737669926678
C         2.96376173667721    8.39550795121155   10.65140607962921
H         2.74181156663471    7.65179112838329    9.89670039038168
C         6.69654385851426    8.10506170905779   12.08322672056432
C         8.00899034429090    8.03872126358956   12.55927273141574
H         8.65619686217210    7.23789129439487   12.23169065154119
N         3.91535104180324    4.95750182953312    9.23814759958867
C         3.63144037855219    3.55708710683247    7.32982662604747
H         3.65350259935497    4.41294620931203    6.65873150327948
H         3.00577039431740    2.78363988598744    6.89200772789816
H         4.64410951617307    3.17411813410545    7.43284418563626
C         5.91801057780987    9.18831108495657   12.56984790920182
C         4.54149694702395    9.28304382429049   12.09147114441308
C         8.53191954694947    8.96743220568675   13.44273561283424
H         9.55501370651048    8.87387045998731   13.78173766389558
C         7.28195579962683    5.63160762275826   10.57219913128162
H         7.60255904717330    5.24290035417894   11.54383793170565
H         8.12890146667993    6.17831254863744   10.14098674849909
H         7.09146384919971    4.76975192634770    9.92581578387458
C         3.07587949975525    3.96368383551611    8.69811743772126
C         7.75166779016178   10.02003810225689   13.89274008309587
H         8.15783501725133   10.75047589725795   14.57836237940555
C         3.07367246492280    2.77122967493810    9.65963739309101
H         4.08247875542053    2.38388941018009    9.78214161181679
H         2.43774779683305    1.98133159402263    9.26812585550440
H         2.70104925847710    3.07258002540121   10.63595865791626
C         3.60743451185368   10.22372788517666   12.53914737049717
H         3.87831539042149   10.93841889171190   13.29879520514197
C         1.99700553067946    9.30310536881780   11.04195676706560
H         1.01312083733435    9.27884622257569   10.60113069138185
C         6.44856054758649   10.12857657831590   13.45569939280176
H         5.85009704109720   10.95810108078513   13.80501731790970
C         2.33119162875965   10.23431179506253   12.01578859490915
H         1.60425011317753   10.95594111825591   12.35897575219005
C         1.66813585857344    4.55458490157839    8.56155348443429
H         1.29703450340249    4.87602918475710    9.53270625772458
H         0.99000563549445    3.80679704877676    8.15892575932802
H         1.67931688666320    5.41201074510492    7.89148854134811
C         4.62188239190742    5.77633589078511    9.67636166096060

