39
CSD_code = KEJJIS | q = 0 | S = 0 | Stoichiometry = C12H20N2O4Pt | MND = 4
Pt       -2.51374521115054    0.58749485107145    8.18351172788862
N        -0.80670280117964   -0.19893822119391    7.23064838691052
N        -1.56490957743139   -0.13582834972413    9.92245689065181
O        -4.00295092191362    1.40814838441927    9.23873120909739
O        -3.20150162745769    1.36564668839020    6.47303637836554
O        -6.12009328413555    2.01226714188574    9.23366565320990
O        -4.98782601386669    1.95736195115165    5.33021246094403
C        -5.33918620754397    0.72380318427943    7.36216456667138
C        -6.78542479536108    0.43402821895191    6.94712866145013
C        -6.51283127924695   -1.07447573587340    7.04364002649924
C        -5.05868953725584   -0.79852840839972    7.46383822169054
C        -5.18048489877115    1.46341332143559    8.70213937790924
C        -4.48316343676455    1.42866557011655    6.29575864513229
C         0.22283011452845   -0.38223966807210    8.26761345738871
C        -0.43816062142974   -0.99320426728181    9.51916258153075
C         0.59779317344858   -1.16639978551890   10.63218772528372
C         1.75152295488340   -2.04489854505718   10.15328547757605
C         2.40589335479379   -1.44213908079942    8.91400910025741
C         1.38008401902600   -1.26568340692950    7.79648531607469
H        -0.50964196902399    0.45783261561397    6.50902951736134
H        -1.01657001119919   -1.08542088165738    6.76928847636038
H        -2.19282528787191   -0.60929126696481   10.57037308477599
H        -1.22943014755352    0.70748388908199   10.39309790245546
H        -7.01692753306305    0.80279047591293    5.95043436058009
H        -7.51050696200015    0.82251615590204    7.65869244176890
H        -6.60542899903362   -1.60791483661298    6.09963378833578
H        -7.10120371483304   -1.58947152613047    7.80050192705119
H        -4.81276548464884   -1.14377917597978    8.47192660406150
H        -4.31241437430318   -1.16614456886592    6.75374303252322
H         0.60524979832534    0.61135349591011    8.53106678404085
H        -0.84940818386669   -1.97418858698864    9.24904278403757
H         0.12674032486011   -1.61553977283114   11.50858245828493
H         0.98412812320536   -0.18595351600228   10.92104312531639
H         1.37567940814349   -3.04280280022082    9.91913381601492
H         2.48918408109577   -2.14503445008681   10.94946975599945
H         3.21277694968503   -2.08928038606389    8.56999458067181
H         2.83960715802236   -0.47254163562582    9.16534442928422
H         1.85533268793828   -0.81604331429665    6.92276988960021
H         0.99117073294783   -2.24446375694453    7.50395537694146

