37
CSD_code = KEJKOB | q = 0 | S = 0 | Stoichiometry = C15H13CuN4O4 | MND = 5
Cu        4.14997311487198   10.83752962738187    2.27378093029104
N         6.22578958329127   11.07871933433224    1.69616206770883
C         7.13332920916347   10.15827792466927    1.42647293211155
H         6.76801045454170    9.14288092753365    1.36824514910082
C         8.46842062246712   10.46657701265004    1.21960102578263
H         9.17883014746635    9.69335216976706    0.97495275273323
C         8.86415619788423   11.79312632041895    1.33186849275487
H         9.89800597439593   12.07147475420016    1.18920364119774
C         7.91778500489459   12.75432741571505    1.63609257428827
H         8.20284844174637   13.78713943807110    1.75975512092882
C         6.58946347329073   12.36185316220354    1.80074626243195
C         5.49709337401909   13.29092489448081    2.09954281050556
C         5.50485206367055   14.63102265975270    1.72656561907352
H         6.34681785561369   15.05044018913734    1.19949458146288
C         4.39389742195242   15.40795539443564    2.01296929195185
H         4.36505632876885   16.44780296524753    1.72487949676966
C         3.30984699019955   14.82899135098755    2.65619503850889
H         2.42588800835033   15.41126629533099    2.85979884865355
C         3.37444273246415   13.48414452518859    3.00484708027622
N         4.45423698823041   12.74237581991170    2.73375149417063
C         2.26601502040763   12.76269555104411    3.64174537920445
C         1.23038093404023   13.39426539995401    4.33086830386019
H         1.24021625389973   14.46172294820016    4.48299179485427
C         0.19137925693923   12.62663036664628    4.82661065102661
H        -0.62968261583323   13.09437879082757    5.35027803985338
C         0.21482027522184   11.25351230058975    4.63431447512728
H        -0.58929363165305   10.62594630298283    4.98321994732708
C         1.30537349855462   10.70322021190113    3.97622138385476
H         1.37287004552984    9.63825494734039    3.79797916172271
N         2.29438004493276   11.43426233151758    3.49976858872335
O         4.34271080869677    8.85846834162371    2.91942810680684
H         3.55060969612820    8.64634548085956    2.36501691990034
H         4.02882619958904    8.87598606747640    3.82662922711395
N         2.07776651519772    9.82516465179228    0.59687640569327
O         2.90299836304997   10.77301366623214    0.63002461059760
O         2.14432968733431    8.94992942950078    1.46940830338344
O         1.24225566068595    9.78932103009268   -0.27040650974816

