56
CSD_code = KEJLER | q = 1 | S = 0 | Stoichiometry = C26H21N3O5Re(1+) | MND = 6
Re       11.12455621639320   -0.08708188882008    1.40723785920094
N        13.34685711647555   -0.60916584164241    1.36472705702830
N        11.94809504560174    1.43622411341276   -0.02674736308377
N        12.01115384910445    1.53090674230374    2.67708669052776
C         9.20605878923088    0.29305513121075    1.43970966850241
C        10.78799401260839   -1.31418199031352    2.88557702001701
C        10.71413010693612   -1.41513388405569    0.03852210147951
C        13.85692761830318   -0.04024735011114    0.10129436352229
H        13.56151813817420   -0.71150729443139   -0.71549298669202
H        14.94978827048199    0.02443916946857    0.11051848627900
C        13.25579473369305    1.30989230473984   -0.17792991115354
C        14.08555526394722    2.36510057526393   -0.58960387143867
H        15.14408961498005    2.19167913869649   -0.69928367848077
C        13.53921869854989    3.59882215508065   -0.81131439896258
H        14.15567116515877    4.44202147582352   -1.08306829099129
C        12.14674448307968    3.76286781679777   -0.69246553738738
C        11.50926065218948    4.99898468580024   -0.92263082659914
H        12.12027435272765    5.85106322581664   -1.17901552070433
C        10.14944141412554    5.10584286733305   -0.84149484156397
H         9.66476361868126    6.05261315730659   -1.02000181939952
C         9.37304130638583    3.97188796728149   -0.55735416278849
H         8.29770677523843    4.05421898982681   -0.54261786129038
C         9.96346672823613    2.76284270852762   -0.31159942262646
H         9.36514911498609    1.88373406851368   -0.12815157173587
C        11.36469249002197    2.62818570503345   -0.33409879127961
C        13.94657590688609    0.09222631694204    2.51707142887267
H        15.03222021017764    0.17932933439539    2.40531494163046
H        13.74399226177184   -0.50228269576979    3.41731894435660
C        13.33040487570554    1.44910847774328    2.72488527815106
C        14.15757904612785    2.55626114921490    2.97248003846249
H        15.22677351656052    2.41986008382538    3.00206949365750
C        13.59229302523924    3.79075708843222    3.13634533016280
H        14.20238961180704    4.66980563579952    3.27748551981118
C        12.19001333872460    3.90831744206053    3.13527931808926
C        11.53358620430092    5.14151217513615    3.32415774077078
H        12.13515561923019    6.02885012870559    3.45002898833218
C        10.16920591783692    5.20298481576412    3.36777304847345
H         9.67017510703091    6.14774407291176    3.51460173027046
C         9.41007858357222    4.02776462855405    3.25674640620156
H         8.33625187436159    4.07881323493383    3.34412040233014
C        10.01690280551646    2.81917997060289    3.05188712925231
H         9.43653662723326    1.91028040190950    3.00382307013331
C        11.41782098712530    2.72747138326829    2.94483705538907
C        13.66377690826108   -2.04482774353534    1.43036493112105
H        13.18718940717880   -2.56427925900917    0.59357058426883
H        13.24732406141006   -2.47132644599805    2.34782747470988
C        15.15694797470503   -2.38889038556605    1.39767857504367
C        16.65179579368463   -4.19441184712111    1.44558046362866
H        17.15482552398323   -3.88677959131432    0.52774653274819
H        16.56898686192804   -5.27611802017856    1.49365729175646
H        17.20900375160029   -3.81258657443110    2.30222019630748
O         8.06392081480068    0.37864295684611    1.46302636651498
O        10.65635170154547   -2.00586968246293    3.78294537472004
O        10.53757174618339   -2.16925301576904   -0.79884463098217
O        16.05092613056758   -1.58489330815103    1.32095289575184
O        15.31317422963355   -3.69655447660458    1.46584568968403

