53
CSD_code = KEJLOB | q = 0 | S = 0 | Stoichiometry = C21H30MoO | MND = 11
Mo       -0.39755346438951    3.11589049481626    6.55002400594646
C        -2.14586457875374    3.66377226548259    7.10336346446112
O        -3.19879721723984    3.99413946699439    7.43670268573459
C        -0.58657682673073    5.25843584494177    5.70380255243850
C         0.78936007749519    4.96362159989060    5.85844196223034
C         1.09709858628972    3.85742233729210    5.00154636699988
C        -0.09386160856562    3.48774500948270    4.29438872036273
C        -1.13623514409510    4.33864415722940    4.72767026518368
C         1.03316558434613    1.45954884594485    7.17575413726863
C         0.79889564152104    2.27332519712273    8.33246523553256
C        -0.57320743242809    2.17648322222148    8.65895750607637
C        -1.19813136853798    1.28121331889059    7.70560768457673
C        -0.20199487401563    0.83591502276990    6.80390139407430
C        -1.26403468040480    6.49611433578333    6.20745355123638
H        -0.88275794271482    6.77341567723585    7.18821984508821
H        -2.34053054557525    6.35771438120798    6.28708297007197
H        -1.07557400399737    7.32426578026378    5.51965162657956
C         1.76793434568702    5.77676597335566    6.64108325614165
H         2.08704121113585    6.64737145995828    6.06380229603113
H         2.65127674748380    5.19492657782920    6.89309768083248
H         1.31898233835867    6.13003851979831    7.56688272848657
C         2.48531332363010    3.48359380245014    4.57769758302441
H         2.53137760960841    2.46732948374104    4.19109997212260
H         3.19570770499565    3.57556031106243    5.39742768368937
H         2.80926287435024    4.15793266123332    3.78030114083881
C        -0.19301041328667    2.49653584348628    3.18111499507551
H        -0.12834855997711    3.00225969688427    2.21525688572794
H        -1.14231113039257    1.96662904330679    3.22329568433318
H         0.60829492349484    1.76314392187268    3.23319471341442
C        -2.47931738036497    4.46171785629563    4.07664249134271
H        -2.41009371954140    5.12146112422032    3.20813459197602
H        -3.21690133168368    4.87574271636259    4.76136062464964
H        -2.83484539747281    3.49020789901983    3.73949959188970
C         2.38291096239806    0.97784558105768    6.73677488295563
H         3.14786036345255    1.74104379926608    6.86630591334214
H         2.37946063311463    0.66353738124286    5.69454448916592
H         2.66854462155088    0.11398198096265    7.34311536629624
C         1.83475306921729    2.97066469160993    9.15263770177471
H         1.45851227473429    3.92532134517980    9.51451856167326
H         2.73620292699296    3.15794723497932    8.57391222194592
H         2.10661155489414    2.36246724125186   10.01806887005440
C        -1.19577887913379    2.66464044646261    9.93060312730116
H        -1.04424206164388    1.92720693259695   10.72286513012805
H        -2.26591337867152    2.82468534142619    9.81410547212751
H        -0.74306638549763    3.60239723787946   10.24613302574408
C        -2.56481161275320    0.68319963691216    7.84290292164863
H        -2.97400475816994    0.42619723575529    6.86786356512027
H        -3.25342980260721    1.37003203099031    8.33108476077126
H        -2.50894101179091   -0.22904023091501    8.44208933267762
C        -0.38187342373677   -0.22585213932653    5.76872134993546
H        -0.31344144328912   -1.21643627728431    6.22383331029587
H         0.37900293249224   -0.15535940958492    4.99508525747001
H        -1.35701992978199   -0.13726390891050    5.29470884613422

