61
CSD_code = KEJLIV | q = 1 | S = 0 | Stoichiometry = C27H24N4O5Re(1+) | MND = 6
Re        0.74143299669907    3.99468211232227    2.10787981320183
C         0.60676765593821    5.78618273201164    2.87618173610595
C        -1.12849132051096    3.68816665966869    2.55233206797799
C         0.14445722310267    4.64979560241920    0.36524275429827
O         0.57075404028825    6.83374424075130    3.32441656892852
O        -2.20929914860002    3.45355603926660    2.83912727291650
O        -0.24376792672699    5.04406864839406   -0.63130894415638
O         2.29693710490388    6.45009094411593    0.83876832463947
H         2.17044747941005    7.41385424317708    0.81066400128591
O         4.46089716346538    6.93833358003966    1.10890539867520
N         1.53424050414385    3.31187844393553    4.03134669068209
N         1.11720738956785    2.03792197674248    1.22959273523343
N         3.10381655508753    3.88460662932356    1.90569967521423
N         5.75773610952826    6.09836662277023   -2.74516563059265
C         0.82302636408863    2.67361809923083    4.96040683517466
H        -0.18377941694425    2.38925419853549    4.68603163048516
C         1.32047247480451    2.38217999396006    6.21730212732501
H         0.70281168977299    1.86669603989408    6.93375511631215
C         2.61279245025515    2.77409309946795    6.53217328020939
H         3.03135777669039    2.57595293276205    7.50596603343239
C         3.36155336619450    3.42079635649928    5.56267448192014
H         4.37449049626537    3.73499883813540    5.75941036925402
C         2.79021981699608    3.67294840663302    4.32409224800978
C         3.56048789092166    4.36171231932386    3.22669451882293
H         3.38916854323991    5.44267111770421    3.29566870035482
H         4.63918972420184    4.19266743350308    3.35585020060432
C         0.15450505886552    1.28458050735884    0.68729716837262
H        -0.86092499435312    1.63566343935359    0.81432962886338
C         0.41119143769086    0.11749379478303   -0.00506412334297
H        -0.40417347512829   -0.45199729796696   -0.41903892638702
C         1.72701925839072   -0.29426735168569   -0.15903241710461
H         1.96857083988602   -1.19434073025414   -0.70146602576300
C         2.72606857561554    0.48029326237853    0.40242100721889
H         3.76306887621373    0.19632504807494    0.31309769059687
C         2.38448486153380    1.63698510713339    1.09129699789418
C         3.44306387468498    2.44798729880298    1.79030557037165
H         4.41141281467887    2.31437291400081    1.29413857974459
H         3.54633663230368    2.01950193323372    2.79629508849567
C         3.58684940925990    6.13697679825777    0.95004973082808
C         3.82449477111477    4.62898065328039    0.85119986266686
H         4.90946254755769    4.48505394202154    0.97943973480916
C         3.43600880203683    4.21474739362599   -0.57984921649074
H         3.73019001221293    3.17962515431619   -0.76957929891376
H         2.35406884915265    4.29984068922207   -0.69904064577453
C         4.12677921620906    5.12798995020772   -1.54616392173168
C         3.57668459996965    6.27114252654640   -2.19906726903597
C         2.30864763061094    6.85414648577622   -2.24605608636269
H         1.47937933649019    6.42322417618896   -1.70595010854097
C         2.13312951780382    7.98788870656661   -3.00473105555741
H         1.15906476624928    8.45086021706091   -3.05259785442978
C         3.18917480653690    8.55546135354931   -3.72435160464685
H         3.00876674918204    9.44509492859311   -4.30771878741561
C         4.44773521786903    7.99796989171951   -3.70603691951533
H         5.25944914674920    8.43388103565166   -4.26716742475904
C         4.63476140474540    6.85202990324876   -2.94026354092411
C         5.44665635154102    5.07374282382437   -1.90806226958478
H         6.19462323583715    4.35498346222470   -1.62724237616672
C         7.04447462315982    6.35872980212777   -3.32562776243085
H         7.41105430614773    7.33999142265631   -3.01619018874714
H         6.98367592209673    6.33730960146448   -4.41604859450393
H         7.75131801430650    5.59929384607868   -2.99733264804658

