53
CSD_code = KEJMUI | q = 0 | S = 0 | Stoichiometry = C20H30MoSe2 | MND = 12
Mo        4.22196011191260   -6.69248754150509    0.21982444091735
Se        3.38451555043118   -7.47526757012625   -2.12221979295576
C         3.80602118780859   -4.85419205314689    1.72830817323750
C         3.64126610630211   -4.38465505966542    0.41664185957855
C         2.58720273211868   -5.14218244468790   -0.19840279989203
C         2.08884137524335   -6.07764282508657    0.76763885665737
C         2.84571451259911   -5.89932623321267    1.95649519265613
C         4.61339784837047   -4.13485908197938    2.76215829584578
H         4.17586497679921   -3.14738893705717    2.92348796417043
H         5.64014153719400   -3.98545884369015    2.43050528483220
H         4.62048620453740   -4.65755468930743    3.71383976013755
C         4.27984466965724   -3.16217274686921   -0.15292003836856
H         5.28020191957068   -3.01878710026378    0.24916664423579
H         3.67769253608660   -2.28620092678425    0.09758733481424
H         4.35194682821395   -3.22825323712741   -1.23762602551225
C         1.85341252176130   -4.68271249293359   -1.42107337656482
H         2.54528941982767   -4.47187564978658   -2.23953288470676
H         1.30659710966589   -3.76562142878144   -1.19129716555619
H         1.14662616787410   -5.43707408625256   -1.76153122508194
C         0.84837568669313   -6.89660266310282    0.61511437448635
H         0.77833602723814   -7.29167129496337   -0.39797231285010
H        -0.03705406487874   -6.28820059490065    0.80939694375393
H         0.84441090275676   -7.73708446801013    1.30546424068668
C         2.38150423958868   -6.34383994781073    3.30967105303522
H         1.66145357972158   -5.60948402012785    3.67989184730344
H         3.19119881490962   -6.40232436403539    4.03316057778845
H         1.87740983763265   -7.30558459725603    3.26566802897833
Se        5.05857092445464   -5.91051372572552   -2.12200236128537
C         4.63727387723127   -8.53119673827640    1.72828586616449
C         4.80198652217357   -9.00072365127092    0.41660734603729
C         5.85617768979105   -8.24333726191650   -0.19838702503244
C         6.35465619129378   -7.30799635167317    0.76771220664532
C         5.59775692390102   -7.48624539712814    1.95654536064414
C         3.82990162946715   -9.25054540813107    2.76213031629078
H         4.26742135488073  -10.23803066971081    2.92340697894145
H         2.80314737091250   -9.39990975910552    2.43050094121136
H         3.82285520131643   -8.72789006998394    3.71383481110639
C         4.16336278947000  -10.22318730096154   -0.15295621939547
H         3.16301982986765  -10.36656385521780    0.24915257044675
H         4.76549605113734  -11.09917906409788    0.09750712005468
H         4.09122582190128  -10.15708652708662   -1.23765457337585
C         6.58993559447300   -8.70283981269158   -1.42106558127618
H         5.89805286640184   -8.91366872070986   -2.23951503873781
H         7.13672342520013   -9.61994081071716   -1.19129109948313
H         7.29674759288100   -7.94851523574098   -1.76154538392499
C         7.59510314763185   -6.48903862673976    0.61516384536992
H         7.66513417874343   -6.09397397475861   -0.39792498037394
H         8.48051611869672   -7.09746059520235    0.80943660305367
H         7.59908461505269   -5.64856553318923    1.30551974440370
C         6.06193968115295   -7.04170127822628    3.30971912239206
H         6.78202184933717   -7.77601313990353    3.67995762256731
H         5.25224356428125   -6.98324156515659    4.03320430705052
H         6.56598684871105   -6.07993002820561    3.26571224887674

