109
CSD_code = KEJNOE | q = 0 | S = 0 | Stoichiometry = C56H45N3O2P2Ru | MND = 6
Ru        5.77393923143004    8.98630925066648   12.64381441285404
H         5.77809107796523   10.51926396575865   12.49944202522883
P         3.48702049449061    8.93103689470785   12.26862460473042
P         8.05563257712540    8.99260781075193   12.31345869849088
C         5.89291364310626    9.21861618798059   14.46022720555905
C         5.75078972231235    7.50420543193518   10.29481424065579
C         5.72242176840380    7.09655938197193    8.87495665242246
C         5.53202858723039    8.06500542735483    7.89480565641702
H         5.41821684611014    9.09666984359881    8.19520692650118
C         5.49602002590289    7.70314469750785    6.56225576403853
H         5.34795835009369    8.45679015129863    5.80219843778971
C         5.64963434577165    6.37453193426210    6.20090166906536
H         5.62114190762530    6.09159027273414    5.15833481632414
C         5.83731113508822    5.40705456431791    7.17615376104059
H         5.95391696469098    4.37110745934750    6.89126724577062
C         5.87258175349383    5.76274043240933    8.51063173940831
H         6.01038904537151    5.02531166886619    9.28634764333303
C         5.88385207062235    5.93546951625842   13.31390835857842
C         6.19351880723347    4.56887006502962   12.83712516163918
C         7.33524788074512    4.30924935631382   12.07818485554218
H         8.02114074833090    5.10799782493276   11.84300780916884
C         7.57294585910495    3.01438704565022   11.65985488937703
H         8.44954625154868    2.78076871036750   11.07165129189658
C         6.67027588010046    2.02032432112502   12.00977512059309
H         6.81550137946614    0.99763979724997   11.69735637200835
C         5.57675688537635    2.37822621086649   12.78214310956625
H         4.84724837694287    1.64101870306033   13.09435521498965
C         5.60183614843017    6.05396312825426   14.74162294747122
C         6.30642781314225    5.24811271288953   15.64084288945358
H         7.07377869687193    4.58546389402256   15.26713598198675
C         6.04318699578511    5.30591820607142   16.99404906737246
H         6.60558562138341    4.68505147116153   17.67680475300290
C         5.05893052232130    6.15295492240302   17.48041348601302
H         4.85479170359981    6.19560188748383   18.53996418551001
C         4.33395265040283    6.93453412737929   16.59842857180726
H         3.55327307190950    7.58783526892601   16.96012268588634
C         4.60212764751735    6.88630065871149   15.24317179902695
H         4.00884760958829    7.48899800216159   14.56966136407142
C         2.78144354240848   10.19757670049042   11.15463498333456
C         1.39983715185308   10.26456154930959   10.98692477463550
H         0.75728966348511    9.57980090551952   11.52327602385408
C         0.84978734911609   11.20341059242794   10.13549376657370
H        -0.22241160037280   11.25247878027322   10.01061547497214
C         1.67050923996448   12.07954660933912    9.44209401751675
H         1.23711434986396   12.81185491064497    8.77638216943920
C         3.04358792627749   12.01375143264372    9.60439661820871
H         3.68486646285226   12.69473770784526    9.06345130041547
C         3.59980705878154   11.07821454839402   10.46011641965690
H         4.67108618136128   11.01966781185723   10.59331041804700
C         2.95123931385215    7.40433391179622   11.41827064822047
C         2.87933282376538    6.19903426659690   12.11581818322096
H         3.00602098193453    6.17801050307468   13.18899314037070
C         2.66073546600886    5.01326483109617   11.44044370228093
H         2.62884970119679    4.08727045710375   11.99497989416871
C         2.51244886003319    5.01337934486139   10.06332935989116
H         2.35794664766363    4.08418060244310    9.53461274476165
C         2.57100609824878    6.20666355185138    9.36403131695561
H         2.46304639747956    6.21322646207657    8.28881132512656
C         2.79510687730492    7.39530731113135   10.03444187372189
H         2.86484712699533    8.32075505140895    9.47858800912361
C         2.32842104375636    9.10311441776958   13.66941438770591
C         2.66556224470923   10.08274790471945   14.59961077256076
H         3.58145678480955   10.64496785301947   14.45117457793767
C         1.85145575683316   10.31781291655937   15.69057047596623
H         2.11862867322006   11.07719258172589   16.41047401413514
C         0.69538706326334    9.57183765221334   15.86223413347013
H         0.05986458730232    9.74795711592459   16.71775477189789
C         0.35537162825538    8.59828567822037   14.93829196698834
H        -0.54596533330888    8.01742102231848   15.07173962770211
C         1.16537240849238    8.36256019428764   13.84047228095268
H         0.89433111260692    7.59768377938013   13.12540937782346
C         8.44294389147971    9.01127120876586   10.53422826106911
C         8.59127539509947    7.84882312183047    9.78313012344803
H         8.54398734414869    6.87915516435397   10.26019256972861
C         8.77687340541898    7.92612304542970    8.41391660406121
H         8.89300500934386    7.01911188698837    7.83834111486817
C         8.78883753532368    9.15693195079171    7.78098231275088
H         8.92612305110073    9.21106428664377    6.71103563826094
C         8.60364876316387   10.31578179684027    8.51857685849637
H         8.59066289322872   11.27603092585537    8.02329098990516
C         8.42688496484118   10.24507577218575    9.88712399083730
H         8.26630474850325   11.14286823123313   10.47037391091256
C         9.08020272206102   10.38304651490921   12.91063916090967
C         8.56403814569472   11.28054005253508   13.83531689820505
H         7.53482523101960   11.17581464367815   14.15248388192657
C         9.35599590888996   12.30595431960738   14.32346978061362
H         8.94930186877010   13.00273487364540   15.04139860327959
C        10.66438845772485   12.43925823105962   13.89146791009196
H        11.28172890402631   13.24033153384116   14.27086181872107
C        11.18327656915938   11.54461498612153   12.96817452109219
H        12.20350226272141   11.64885917940787   12.62795013258530
C        10.39804043548535   10.51734753959885   12.48179771546855
H        10.80427518953585    9.82177933821296   11.76048310104025
C         9.08493038722702    7.64460517114048   13.00418777340539
C        10.20087412324731    7.09499898355748   12.38097777623756
H        10.50018222025501    7.42648197091687   11.39683602670654
C        10.93628957798918    6.11219021954583   13.01997715424214
H        11.79471050235989    5.68161933236082   12.52426596565389
C        10.58331184335885    5.68573412637240   14.28950693514052
H        11.16284151647346    4.91861440356912   14.78183672455553
C         9.49382208646280    6.25365270048133   14.92883836637829
H         9.22461918580181    5.94310324326659   15.92746394611529
C         8.74720805243087    7.22416636534360   14.28747278158766
H         7.89299063212085    7.67188296157426   14.78072680620273
N         5.82969629963435    6.92242219371155   12.46939483435840
N         5.93413181296988    6.54272968034312   11.16713153666848
N         5.34163609026901    3.61124648543630   13.18970474439820
O         5.99550564368649    9.48661667569951   15.58205801427187
O         5.57496364284437    8.72657671829605   10.58060074942742

