59
CSD_code = KEJNET | q = 0 | S = 0 | Stoichiometry = C22H34Cl2Mo | MND = 12
Mo        0.10198322463939    4.45013749996197   12.57720423505891
Cl       -2.20348086033297    4.27056699174074   11.66702878918833
Cl        0.52576916369696    4.37529393239531   10.13917932008632
C        -0.64799362842189    2.45583351934494   13.55676845928465
C         0.31554073131418    2.93331410536410   14.46717065069938
C         1.58458500992996    2.98879549834617   13.79736001249182
C         1.41026161908384    2.52714704504356   12.47400300058824
C         0.01187807140066    2.23837939641002   12.29148312908818
C        -0.70284688756133    6.26134139315580   13.62407903363063
C        -0.52737612795555    6.65396069798052   12.25049715889323
C         0.86965485323698    6.70408951340137   11.97162811247153
C         1.56717152881582    6.26124547071232   13.10897720412462
C         0.60588867713106    6.02588791592869   14.15827095431519
C        -2.03263784105186    2.01055505235191   13.91048163778395
H        -2.70328959450838    2.20242559354294   13.07150451273104
H        -2.40118881603166    2.58471775570724   14.76281618413837
C         0.09461641700339    3.00316140462486   15.94639947819947
H        -0.00183670086057    1.98675146699646   16.33290874828632
H        -0.82490668662482    3.53321188771987   16.18699383242961
H         0.92264415004332    3.47578275988821   16.46505560575969
C         2.91571205563207    3.12317020750187   14.46975294211533
H         3.27034189910086    2.12709708567591   14.74437073323707
H         2.86125766218132    3.71591203216193   15.37924451282728
H         3.65283566747143    3.56810304612694   13.80598497643058
C         2.48562324349434    2.16962768024941   11.50091771836966
H         3.44938917327202    2.56680601105949   11.80970532683916
H         2.24627743440622    2.56774513216142   10.51510129354205
H         2.56385964770267    1.08380223197557   11.42239409673744
C        -0.53226008108839    1.41534379986678   11.16128822334417
H        -0.29066549180005    0.36048015575924   11.31235577701593
H        -0.09799850143385    1.73951583335922   10.21612574939567
H        -1.61284836210082    1.52819752460509   11.09355204588451
C        -2.05046290563489    0.51835069460094   14.25154555228290
H        -1.71527860207284   -0.06999635006317   13.40174489482206
H        -3.05941930727116    0.20773879067518   14.51067895110491
H        -1.39615674090679    0.30573368711123   15.09453611116959
C        -1.97531172974103    6.39606517735442   14.40341299744052
H        -1.94259280612214    5.74986887411797   15.28400687311493
H        -2.80756898896716    6.05801846994396   13.78220089727747
C        -1.56110485613549    7.27247801986768   11.35906585714238
H        -1.43369866015130    8.35756653517836   11.34629943739783
H        -2.56483951887436    7.03382845774839   11.70019696069303
H        -1.45526947278301    6.90035919039553   10.33979135047017
C         1.48441856931092    7.26928151264832   10.73599292629117
H         0.87658055083850    7.04792825962607    9.86197122600565
H         2.47907810931047    6.86285406367588   10.57150761502216
H         1.55947547456107    8.35415512665202   10.84084292809350
C         3.05257100986238    6.35936181166698   13.26809833678981
H         3.35352812506271    7.40792106041719   13.22486597728984
H         3.56513190513945    5.83393989060043   12.46336279256302
H         3.38231914379853    5.95290741371863   14.21956154327838
C         0.94410156176816    6.11505894016471   15.61638417379847
H         1.83934058913273    5.55480185762693   15.87431858041346
H         0.12161496776435    5.77633830010011   16.23966546838247
H         1.13588546297031    7.16384205031783   15.85706329319232
C        -2.21027799955710    7.84255208416442   14.84401006446137
H        -1.39832793742757    8.18420386680546   15.48259343016773
H        -3.14279897200556    7.92154466295075   15.39756027698329
H        -2.26469762160087    8.49779791077905   13.97871802940467

