53
CSD_code = KEJNIX | q = 0 | S = 0 | Stoichiometry = C20H30Cl2Mo | MND = 12
Mo        5.56800941295340   11.29798510022976    4.35488881535041
Cl        3.78867865075497   12.62933011971913    3.25413921315319
Cl        3.52385190587502   10.32504707725768    5.35873850085329
C         7.22039538768811   10.21522064963398    3.30329789491650
C         6.37129732735133    9.19878585284934    3.88080268913200
C         5.14641270934817    9.20490603431900    3.16246629162732
C         5.18427444717611   10.25259810620421    2.21050702671220
C         6.44836703274656   10.90857434004940    2.30101145554475
C         7.37418387538568   12.74105749880735    5.09794231687684
C         7.24235023629443   11.69415668100507    6.07425214002696
C         5.94698294243920   11.76081578252669    6.62454660226776
C         5.23622273359933   12.81825803540660    5.95184886694792
C         6.15862269023393   13.45286283051179    5.04259592930342
C         8.71756483963524   10.12066469776758    3.27918358416512
H         9.17875773735462   11.05254197778797    2.96551048124365
H         8.99655698121618    9.35280295129623    2.55277857527669
H         9.12791649861942    9.82619399909571    4.24099365178420
C         6.79552478111424    8.08760911204791    4.79027278810183
H         6.88614606212464    7.15662692617172    4.22726577301119
H         6.05576232325764    7.93707467391279    5.57541337119677
H         7.75629635920358    8.29813335999858    5.25237437095759
C         4.08143407955439    8.16215140525378    3.25448998462226
H         4.28918390989312    7.37641309570715    2.52406335688597
H         3.10151817627945    8.58368798075319    3.04044730717448
H         4.05210838126814    7.72125617948728    4.24741220339597
C         4.17264534055974   10.45816438411054    1.12948802422651
H         4.23395649862330   11.46446126849555    0.72408193664421
H         3.16283044592224   10.30507156417986    1.50612714435622
H         4.35711291027057    9.74009883983518    0.32673204314750
C         6.95780690190655   11.88039149278385    1.28290678515701
H         6.23758559216542   12.68502057480570    1.14220872547151
H         7.10700120438230   11.38214772655279    0.32313306122902
H         7.90488950597044   12.31634891478382    1.59067554986661
C         8.65914367654342   13.25528264648562    4.52468491476328
H         8.93550435523235   14.16839983366572    5.05611789867712
H         8.55538936801461   13.50694442509657    3.47104024075010
H         9.47194353319845   12.54436401574728    4.64012792590758
C         8.36416746789152   10.91749444443082    6.69260925564779
H         8.08641585275979    9.87903635180449    6.86034058122931
H         8.59926280759275   11.35847470121659    7.66364049474988
H         9.26633015042110   10.94876037572006    6.08817915844153
C         5.46052039694188   11.03513688000837    7.83547109928245
H         5.39690452368601   11.72714199965979    8.67689406867945
H         6.12860045675248   10.22010968465546    8.10126592711211
H         4.46794885595048   10.62428458403373    7.65369445575011
C         3.98152973557438   13.45745695815924    6.46992401193275
H         4.22419675013308   14.17157762509291    7.26071062199493
H         3.30930081391954   12.70072517571186    6.87165469602317
H         3.46458617859327   13.98181829608179    5.66771129570608
C         5.92938926951730   14.76218664275555    4.36258178253800
H         6.72481634984222   14.98333266385196    3.65579261910736
H         5.88610403302889   15.55987716151420    5.10600458549796
H         4.98259754323961   14.74373630096131    3.82395790558269

