74
CSD_code = KEJPOE | q = 1 | S = 0 | Stoichiometry = C35H34FeNOP2(1+) | MND = 8
Fe        2.42437432453943    1.09626568512226    4.27456137430087
P         2.40691994175953    3.27913196586129    4.17932787911709
P         4.10539163917016    1.10985083055147    2.91541893029005
O        -0.54552973983379    1.80212050207373    6.57461235269445
N         1.23444336691600    1.05028345663170    2.93222346149822
C         1.66603792020022   -0.74794390103459    5.10210429669243
C         3.06245513888539   -0.73490980518614    5.22325423147362
C         3.43136607544079    0.38276914754220    6.02566173733319
C         2.25324606225225    1.04593606678887    6.40657361262892
C         1.14205131713929    0.36447979266674    5.82848064162884
C        -0.25663379481721    0.74236756293256    6.05790408350705
C        -1.29189197384438   -0.25542134236650    5.60896329472436
C         0.90589401487924    3.94134369207992    3.40622016363274
C        -0.26575316574891    3.83421036170840    4.15665623635015
C        -1.47440699042442    4.23724841126528    3.62196250748191
C        -1.52868542208699    4.73587690247990    2.32889316899213
C        -0.37198884883210    4.81996651474045    1.57110874567485
C         0.84256348806995    4.41711111749430    2.10127006236575
C         2.66181951754936    4.29992033021024    5.65922235331476
C         3.74042809026230    3.95144436078762    6.47114868681889
C         4.03101911170558    4.69148398024442    7.59996742624971
C         3.24250308123237    5.78411930729378    7.92902699122849
C         2.17275702717685    6.13501603758886    7.12316284254298
C         1.87787870370869    5.39871806876505    5.98793452287836
C         5.73976108756774    0.73854940696858    3.61673609951129
C         6.24118701365714   -0.55760494537835    3.52089359138841
C         7.44828685486064   -0.88188468533147    4.11196336825991
C         8.15986559351620    0.07861525853092    4.81281583650577
C         7.66020152227042    1.36639604904121    4.92250218224251
C         6.45235622556860    1.69470176651803    4.33468450274157
C         4.05513735766646    0.01100881671523    1.47140361189701
C         3.12712871196382   -1.02376752313153    1.44667842220451
C         3.08584991345953   -1.89313435424678    0.37093719560258
C         3.97232640882861   -1.73291750789985   -0.68166517015335
C         4.90468377118807   -0.70685001539830   -0.65663766670548
C         4.95215000698760    0.16309970614654    0.41680585632162
C         3.82668033651555    3.86990632782105    3.13368071671086
C         4.26351529791038    2.79402485763671    2.14470340188099
C         0.36369524582494    1.01073755164946    2.17710474942185
C        -0.69950969602732    0.97728308212461    1.22389256711099
H         1.08687541283483   -1.50983770256510    4.60865988171172
H         3.73902463733750   -1.48772006159669    4.85470217437460
H         4.42370446616927    0.57704981186756    6.39511242036490
H         2.16658116306851    1.87396722903639    7.08895022692300
H        -1.15642179905081   -1.19304422937392    6.14442217404597
H        -2.28713281690161    0.13139378458235    5.80917748554598
H        -1.17998870282562   -0.44748351001533    4.54378012928106
H        -0.22034116427101    3.43684440522801    5.16123503147034
H        -2.37345749656047    4.16326771424421    4.21408319684750
H        -2.47105800797171    5.05635299433208    1.91129240756609
H        -0.41385409208139    5.20250484135229    0.56191172920414
H         1.73149971837507    4.48140244388047    1.49123861904378
H         4.34100530103697    3.08922982577623    6.21014670446839
H         4.86577600790717    4.41683282578863    8.22717501720882
H         3.46293375739447    6.35972259881301    8.81459210378802
H         1.56158020756950    6.98717036845618    7.37815292214203
H         1.04402179947418    5.68046107974105    5.36297612375336
H         5.68840229022334   -1.30595355194182    2.96951527053210
H         7.83512534013920   -1.88593021932589    4.02631563712722
H         9.10142334638325   -0.17590165097502    5.27396071662408
H         8.21194008372226    2.11601824660511    5.46947281731838
H         6.06732646924460    2.69873804146915    4.43080002046256
H         2.44553552534053   -1.13423281494356    2.27868952856943
H         2.36719258572018   -2.69874184488899    0.35389277055074
H         3.94180953090368   -2.41117309199582   -1.52035702392464
H         5.59955607857020   -0.58933115674722   -1.47408668747836
H         5.69012118095705    0.95201830722665    0.44470833353624
H         4.63532296474697    4.10177534161771    3.83173694283357
H         3.56034329866883    4.80528576183571    2.63330241104775
H         5.28578800370754    2.96701840962923    1.79639527437707
H         3.59675800635796    2.77851432037500    1.27519897821299
H        -0.35459870941825    0.52012001448806    0.29625763988163
H        -1.53578436935783    0.40008265976463    1.61731760386002
H        -1.03578455448800    1.99502597024174    1.02341255035702

