83
CSD_code = KEJPEV | q = 0 | S = 0 | Stoichiometry = C38H39CoO3P2 | MND = 6
Co        3.83050310314247    6.83845663088896    4.05303204961169
O         3.42065350392758    5.85269097548392    5.74633758340284
O         6.41512524522496    5.87580203425735    3.33685869637255
O         1.11423167171122    7.54929145796484    4.89540929178903
C         6.60601896771173    8.31251591734764   -0.30471457132754
H         7.27494414707465    7.56862426081933    0.10549398166633
C         6.93698081522284    8.95883022766858   -1.47828110682533
H         7.86245427599341    8.71883218163634   -1.98263147473210
C         6.08611304952530    9.91516403374285   -2.00942924620917
H         6.34304830202751   10.42307725616827   -2.92760099052723
C         4.90379406341633   10.21420058196164   -1.35239005670651
H         4.23511957041482   10.95992105779653   -1.75916326389317
C         4.56782928530916    9.56691754704644   -0.17880855262778
H         3.64353929349588    9.81075406186226    0.31979758009643
C         5.41345379161829    8.60022792741703    0.37049867170799
C         5.14810496373447    7.87082379151931    1.60042509342329
H         5.95111743468417    7.19943461897700    1.87481862554081
C         4.07438783250749    7.90933953609864    2.40801256028003
C         2.94556019183018    8.70541072525883    2.21642847725354
C         1.91734920926439    9.35399503748541    2.14918175228357
C         0.72909246621184   10.10130799296793    2.05520281680568
C         0.76043081274439   11.49785395881344    2.10090384846227
H         1.71043024831357   12.00292099760954    2.20575190375971
C        -0.41301071239021   12.21982104820021    2.01405939614124
H        -0.38198353077239   13.29940678775648    2.05100494164353
C        -1.62820401284460   11.56681547358841    1.87874631650122
H        -2.54354600614339   12.13588835714553    1.81009028166215
C        -1.66637746813140   10.18177822171299    1.83218666052678
H        -2.61334150080478    9.67164912996826    1.72795184496862
C        -0.50003158942577    9.44911676264970    1.92005713620552
H        -0.52404928618833    8.36911135825043    1.88603935659976
C         1.69715033032139    5.47523747686070    1.81139051908369
H         1.47658306490818    4.63196800967429    1.15726844457980
H         1.79400785591444    6.38439017767238    1.21997754803495
H         0.88588784069263    5.60546703667369    2.52554931795095
C         4.34387586828007    4.64644707297613    1.34992230267539
H         5.33443654690024    4.40995618221993    1.73275459300721
H         4.43102365922160    5.45623433574254    0.62799791717165
H         3.91146711014098    3.76775414180375    0.87166492135542
C         2.89299541751291    3.57546089544130    3.51949228330633
H         2.19471289074372    3.73383623034152    4.33950919849449
H         3.81355707392529    3.14987969112294    3.91588320264403
H         2.45555826070742    2.89266907467208    2.79070537601631
C         4.27957028340318    9.94302709277710    5.26882717057600
H         4.95220468006606   10.65504256611863    5.74646872326825
H         3.38629457340679    9.81589960155596    5.87783008229520
H         3.98369399887585   10.31411365535033    4.28895367863361
C         6.69924397356828    8.84657016368723    4.34460556327093
H         6.50896524829569    9.37729265243177    3.41364924104279
H         7.31189810789833    7.97434740890436    4.12782547975725
H         7.21704721968674    9.50040433141760    5.04605961811615
C         5.59981148608408    7.97252731303969    6.79614846794333
H         6.05367883194006    8.86235725881122    7.23310304439047
H         6.31240986016875    7.14952348888447    6.81360686452469
H         4.72090526776308    7.68774861059934    7.37240618956240
C         5.51279135749608    5.79590686144627    4.14826503427772
C         5.48417484460552    4.93985470670416    5.28807439740303
C         6.56708140399319    3.96998399622046    5.49413989907415
C         7.90052293651065    4.34500323992569    5.34690087738598
H         8.13914893817859    5.36775859634765    5.09559907657324
C         8.91545866343394    3.42261195409380    5.51949769030417
H         9.94504069543192    3.73094766483806    5.40447305991573
C         8.61834308820153    2.10975116175283    5.84259228305346
H         9.41218200837892    1.39006835633334    5.98008408458858
C         7.29531888210230    1.72279313304664    5.98250785573707
H         7.05461468608022    0.69756402056902    6.22616237494758
C         6.27876047052450    2.64002571917221    5.80288508467909
H         5.24841246936969    2.32768233308966    5.90625981815790
C         4.35748762859471    5.06107429901413    6.09073474158833
C         4.19697100151224    4.34232831224730    7.37569178836695
C         5.26082795530711    4.18218671349412    8.25945872680314
H         6.23299799138487    4.57889445553301    8.00843133395666
C         5.07206281479063    3.52385814114378    9.45970631085999
H         5.90277567589394    3.40192332895616   10.13940791550582
C         3.82408755693507    3.02301290025211    9.79425153751729
H         3.68272760058203    2.50343223115850   10.73065473171752
C         2.75652885696237    3.19946320469375    8.93018871889326
H         1.77893623070059    2.82198361674987    9.19317270389787
C         2.93975796602184    3.86292935549829    7.73152895060479
H         2.11108240976279    4.01626978066451    7.05572947517336
C         2.13918129153795    7.49947029141291    4.39597099157635
P         5.10502670005185    8.31834055085151    5.06565484069132
P         3.26278028699969    5.18284665587665    2.72140634513787

