70
CSD_code = KEJSAT | q = 0 | S = 0 | Stoichiometry = C34H30ClO2P2Rh | MND = 5
Rh       -3.15318275044799    2.05216083446265    1.58011355173601
P        -1.90576842438686    3.85888627473323    1.05389643408147
P        -4.63236446148691    2.12770261404910   -0.08741147850712
Cl       -1.55759294869927    1.74456005304107    3.16830034268425
C        -1.42172217452760    4.55461803320896   -1.65053963452473
C        -1.72563286272980    5.22040671722544   -2.82489312213881
C        -2.82167655728803    6.06331490726300   -2.88586343266002
C        -3.62646776508700    6.23102524280618   -1.77015028082586
C        -3.32756107750630    5.56473939829098   -0.59811174210158
C        -2.21319429450580    4.73352624163270   -0.52293261006029
C         0.08504987749290    2.16412111420090    0.30262116390107
C         1.37602128371371    1.70542789136232    0.13554703421810
C         2.44117334733685    2.48010875639557    0.56976853379051
C         2.20872263674600    3.70391371316789    1.17322239424036
C         0.91496269109898    4.17069716228267    1.33766639142538
C        -0.15204982593394    3.40358312390806    0.89412548347307
C        -2.54967710170826    5.05759418884108    3.46026482851633
C        -2.60170958208796    6.09388359938198    4.37539687401458
C        -2.06189353802749    7.32796716524583    4.05315821637165
C        -1.47723867157191    7.52905156463062    2.81205164282117
C        -1.42440788552533    6.49781438805435    1.89272711701977
C        -1.95264598202209    5.25143923613354    2.22023156499716
C        -4.62093487403145    3.18854454409564   -2.73491594541819
C        -4.11160486962463    3.23377391176783   -4.02126978049291
C        -3.08210527350306    2.38771626331875   -4.39630549939652
C        -2.55130073792587    1.48972582958142   -3.48327077032629
C        -3.05812916048875    1.44096846884192   -2.19994622974212
C        -4.10226082494253    2.28059187762275   -1.82408026353129
C        -6.27251255076650    4.08840341273340    0.95242169146284
C        -7.43840137235837    4.82428842225389    1.06529976681684
C        -8.51033247357968    4.54583269060203    0.23235946559926
C        -8.42181718688535    3.52909241788235   -0.70652514654621
C        -7.25568775162717    2.79531687444968   -0.82668701392202
C        -6.17579553536168    3.08333672447525   -0.00067522910172
C        -4.75895254662205    1.14060446046797    2.67115134981531
C        -4.08083525294308    0.15516961689162    1.93306129804225
C        -4.67803764387713   -0.34598525032406    0.68830450230534
C        -4.65946228837105    1.24546543446112    4.16350236505732
O        -5.24064784316073    0.60880935388467   -0.14491736098967
O        -4.75277703037458   -1.49846803933128    0.36602314620337
H        -0.56086969192505    3.90243686059743   -1.60737479927909
H        -1.10065188190071    5.08237746868017   -3.69495436825858
H        -3.05020774638144    6.58819987149260   -3.80149789311087
H        -4.48644344423479    6.88362412583629   -1.81456650952454
H        -3.94867102822242    5.69847469771267    0.27751259797343
H        -0.76600555916682    1.55597855312383    0.00112210604906
H         1.55554167520384    0.74174921131311   -0.31825960236139
H         3.45261319407314    2.12053966710572    0.45050437162699
H         3.03932646829291    4.29709885591903    1.52735699341205
H         0.73905790601286    5.11737813002933    1.82764717241610
H        -2.95708457487416    4.08103181319457    3.69745318255989
H        -3.06173913308904    5.94012294948156    5.34042359564005
H        -2.09867606421300    8.13761557419614    4.76718107447382
H        -1.06193896235594    8.49432295867011    2.56059025999056
H        -0.98420400105008    6.65780984321054    0.91734939951343
H        -5.41831812243475    3.85581249845339   -2.44136948365878
H        -4.52160114726225    3.93429274697662   -4.73392343738760
H        -2.69084507183302    2.42785816656061   -5.40216134358349
H        -1.74594920805771    0.83173417501157   -3.77465746439583
H        -2.65900502879385    0.74026955216339   -1.47407345669955
H        -5.42601758633480    4.27145357684514    1.60715462301265
H        -7.51593255266214    5.60831742829501    1.80431109011655
H        -9.42262260477126    5.11727201440450    0.32040500234368
H        -9.26527128300084    3.30891564658152   -1.34437273802490
H        -7.17295740646266    1.99368036233708   -1.54703671307374
H        -5.71700575669699    1.49706607365861    2.27732041840487
H        -3.46398108989903   -0.57376218319638    2.45552089239671
H        -4.79448211781856    2.27803861709099    4.48735394080183
H        -3.70071148414005    0.88007728887760    4.52294723388196
H        -5.45909547300164    0.65258424910896    4.61257432235809

