95
CSD_code = KEJXIH | q = 0 | S = 0 | Stoichiometry = C33H50F3N3O3SSiTi | MND = 4
Ti        4.73031911856715    0.06905455076412    9.20121775622938
N         4.24165424740567    1.50790253488565   10.35131194205007
C         4.90374645024911    1.38348608381440   11.48930318475613
C         5.20699992313963    0.13263036237553   12.04402995843648
H         5.76415923865544    0.14635047378243   12.97107523336885
C         4.83884759297393   -1.13473438355806   11.57118789787313
N         4.22196791810970   -1.30626547509948   10.41624105251975
C         3.67075420090646    2.73957977594088    9.94257925268571
C         2.37254680637664    3.05070105989924   10.38665132121450
C         1.83714913113976    4.29175588152736   10.07037316770797
H         0.85873615137168    4.56341085307393   10.43056091176017
C         2.53291679266980    5.19064532033452    9.28477680282114
H         2.10114967946206    6.15208335321242    9.05047121239848
C         3.76678351409842    4.84040498471436    8.77374621275667
H         4.28221019764270    5.52683704501426    8.12153747715567
C         4.35718805158707    3.62602790863472    9.09784301686508
C         5.68021870885698    3.23555871334276    8.48174986850738
H         6.16017686596968    2.48983112432118    9.12328307733497
C         6.65925040077062    4.40428974148602    8.34347775183746
H         6.35468506116868    5.08903145700207    7.55524283174020
H         7.64582049346808    4.02095213894668    8.09228216269837
H         6.73442643008176    4.95678624208496    9.27768998903837
C         5.39850078510817    2.59916047602005    7.11203585757703
H         4.72151666436410    1.73871870230030    7.22984346781902
H         6.32917331886410    2.26206500971822    6.65506720265865
H         4.92978287005727    3.32964012517334    6.45312852456884
C         1.56337657259381    2.01283917817651   11.13394351319610
H         1.84925378410137    1.04128372023361   10.69885828850597
C         1.87692935263195    2.00450044250978   12.63474974314268
H         2.89173904555795    1.66968832607414   12.82587079501301
H         1.19541489413631    1.33025833915591   13.14922052399642
H         1.75159859436664    3.00215526022953   13.05228337267999
C         0.05902510720395    2.21824315530429   10.94553931473377
H        -0.48163284835638    1.34850186874899   11.30734972635330
H        -0.18150266167907    2.35689553925625    9.89621753006262
H        -0.29124936253381    3.08081761745574   11.50852096851641
C         5.34291308631157    2.60951220334504   12.24988801411275
H         6.35252750190156    2.85475483999797   11.91707186335700
H         5.37173593354137    2.42727527853587   13.32120800086883
H         4.69184631470128    3.45545177688237   12.03646316073221
C         5.17762840308874   -2.31839488121176   12.43975222241504
H         4.59753700796102   -3.19242807012491   12.15015107368726
H         5.01343469783691   -2.09616772578385   13.49162835737506
H         6.23555736149103   -2.53979793254056   12.29426246139361
C         3.59380389766025   -2.51698635648410   10.04209928761885
C         2.35019834469645   -2.84473832220395   10.60815257696525
C         1.71960962921407   -4.02007887993029   10.22193906138956
H         0.76926661142815   -4.28277243936516   10.66080713048120
C         2.28135060308655   -4.85529960586015    9.27751684547808
H         1.77307575854208   -5.76022812916325    8.98082054746851
C         3.49528074641215   -4.52036629693257    8.71006025001413
H         3.92598719197689   -5.17116796523839    7.96577211084563
C         4.17484850523303   -3.37064219802621    9.08856752794690
C         5.51509644215839   -3.05369227758703    8.46504986227223
H         6.01930992327660   -2.30628484300065    9.08635669910239
C         6.43779185058560   -4.27546466741496    8.40410112488050
H         6.09711498980991   -4.99668823582787    7.66497575878464
H         6.48777983042292   -4.76714839394872    9.37326487470967
H         7.44122264321598   -3.95830057201367    8.12852124978223
C         5.30352041920961   -2.46391831654846    7.06453147594430
H         4.79933827126512   -3.18700409059209    6.42467327305005
H         6.26443771249088   -2.21020899262328    6.61646322367956
H         4.68679937360856   -1.55759533224896    7.13762108737736
C         1.65899050390699   -1.92442338511748   11.58777479072508
H         2.28992042245682   -1.04339666128040   11.75270038784730
C         1.41945495603986   -2.60972642611558   12.93587637056453
H         0.74685361901538   -3.45682059689771   12.82766433598653
H         0.97196663003112   -1.90780677320940   13.63627425227908
H         2.35417004818528   -2.96811970108047   13.35987037133809
C         0.33815034919259   -1.44677944494115   10.98026530123348
H         0.53512057058610   -0.90859344520915   10.05525103404214
H        -0.17496836435168   -0.78909173990695   11.67748326080891
H        -0.31788685635455   -2.28574734322382   10.76292305596819
N         3.40192274293643    0.06417445450911    8.14170823032728
Si        2.17668132175404   -0.00586099951246    6.97305042311476
C         1.37352890232803   -1.75309835754971    6.91315997120161
H         1.99168875746120   -2.44834471055326    6.35422399357781
H         0.39471460478587   -1.73072615923965    6.44473568034401
H         1.25944630170958   -2.15698768335896    7.91472909271682
C         0.79270588423518    1.28298112880254    7.31426620440349
H         0.06602512264938    0.90223318749764    8.02435062771391
H         0.25876086034986    1.54317777728225    6.40603268435959
H         1.22063059491426    2.19282547617923    7.72571255356208
C         2.87284247781376    0.37096490124784    5.21658398330454
H         2.95565998327580    1.44066911186224    5.05013631531329
H         2.23731254692148   -0.03474937007438    4.43571823058888
H         3.86441258678378   -0.05800409493269    5.09508587897740
O         6.46532876722065    0.06131183615407    8.44087832368161
S         7.39029861335161    0.03528634401542    9.57980051477028
O         7.44158578705313    1.26559193016727   10.30732382830581
O         7.30890130523947   -1.16494038569790   10.35451595589404
C         9.00322860636927   -0.07569673695475    8.63269780045691
F         9.11384617082712    0.98293097669852    7.82665676232579
F        10.09117838901100   -0.12844911316869    9.39917007286568
F         8.97998165208769   -1.17169107734765    7.86949967907779

