137
CSD_code = KEJYUU | q = 0 | S = 0 | Stoichiometry = C92H41BrP2Ru | MND = 8
Ru        7.87652514140265   27.85194417231503  -12.65209408905817
Br        5.74570035441025   27.62581749862769  -14.01929410987612
P         8.45533456984296   26.12933686160847  -14.13160241957111
P         8.82380883741431   29.20165791875355  -14.30205762752369
C         6.60234367474194   28.46027740765908  -10.80091329696834
C         6.97158925518977   27.06792885403297  -10.72825404071153
C         8.39631371051996   27.00282084818739  -10.57351303266235
C         8.91813346733279   28.33519276241893  -10.61993349609481
C         7.79130858394193   29.23826146412685  -10.74752663443060
C         5.23425606023644   28.98428002129099  -10.42175324676991
C         6.03172427822290   25.99291298842904  -10.22784234323693
C         9.10834508321977   25.84686514392986   -9.91304091959285
C        10.21563880829695   28.73306489302514   -9.94542155746038
C         7.81949460018380   30.67062613380624  -10.25858449675280
C         4.60579724433558   27.97637788791343   -9.46961688196318
C         4.95051828430247   26.66079576638423   -9.38652186594387
C         6.75573930718034   25.19686711012480   -9.14904564829412
C         8.10967859706926   25.13386260033655   -9.01112168765439
C        10.06431276727249   26.41404391716073   -8.87521115367711
C        10.55367702635296   27.68448430078347   -8.89112725824129
C         9.94455510736351   29.93311320276728   -9.04739745862750
C         8.89341055523765   30.78585443590125   -9.18490188523316
C         6.57381916580654   30.91290420857162   -9.41414057768004
C         5.44093297643637   30.16143071412329   -9.48049876374048
C         4.11036570438662   28.65622430262709   -8.31658629785883
C         4.81837889067123   25.98222569202381   -8.13630563420650
C         5.92814225547443   25.08210532188026   -7.99019019681740
C         8.68478303889239   24.94874325875698   -7.71724656775784
C         9.88523398584220   25.73376169217855   -7.63418912873413
C        10.87869542429501   28.32365930119031   -7.65626289233699
C        10.50603422851226   29.70707688276174   -7.75342688631161
C         8.36332552721587   31.44450534493257   -8.03362075607065
C         6.93619759715395   31.52019326862458   -8.17298868817810
C         4.62216733686549   29.99857480661119   -8.32376033165376
C         3.92543344167471   27.99493614774218   -7.10800277541716
C         4.29267116076366   26.61674853314122   -7.01513964693257
C         6.46992868004443   24.85257449728648   -6.72939691783569
C         7.89073983117289   24.78242222547314   -6.58838497748238
C        10.24660267349287   26.32365411965328   -6.42842446804824
C        10.75735845962117   27.65889449637850   -6.44030635000225
C        10.03170026399661   30.37497077829773   -6.63007244459152
C         8.92708693532842   31.27064267427227   -6.77442390729726
C         6.12644056837327   31.41171803472642   -7.04675413994035
C         4.93216379407876   30.62955605704823   -7.12460135508133
C         4.26819195664062   28.63947721893064   -5.86545393339666
C         4.86644802076927   26.39396135499109   -5.71216916640785
C         5.93825082970824   25.52529545918211   -5.57126341881781
C         8.25307383801712   25.41134599315403   -5.34331505839805
C         9.41229207460102   26.16956437901360   -5.26394993775016
C        10.24485699120556   28.34481549164979   -5.28142673411255
C         9.88831239918642   29.68208724792990   -5.37475409578495
C         8.08829367910989   31.14110467753294   -5.60999784478497
C         6.70943126686821   31.20916953319951   -5.74461657692005
C         4.76356527270653   29.93552225309243   -5.87322336118630
C         4.85628023721161   27.64781322480308   -5.00207799649969
C         7.04300926349863   25.87619356468399   -4.71546652298758
C         9.40776805678964   27.42373346535542   -4.55561784098823
C         8.68073547725272   30.15245994094773   -4.74563598026195
C         5.86784834878916   30.29133152762612   -5.01959858892274
C         5.92252491060184   27.98927944676271   -4.17740831998175
C         7.03639521825701   27.08698366444404   -4.03154621293933
C         8.23993947130796   27.87508610933670   -3.95067735998272
C         7.87014918804552   29.26435450842129   -4.04702874292359
C         6.43780968476891   29.33492653094636   -4.18659214466396
C         4.24293766115877   29.37020563902501  -11.52470605710327
H         4.66446347049017   30.13201320295080  -12.17503705204621
H         3.34472368399912   29.77234797079611  -11.05948764880791
H         3.96915672519809   28.50795009806597  -12.12430177159803
C         5.45072413273671   25.09530925967506  -11.32505719856366
H         4.81311315101345   24.33258679126012  -10.88298443172514
H         6.25462734933327   24.60610776345379  -11.87374922839163
H         4.86017055568968   25.68451197637666  -12.02282840150922
C         9.82459463781342   24.86662664451242  -10.84075305638823
H        10.11094771618159   23.97482406036950  -10.28633141818570
H        10.71976528575712   25.31888533038142  -11.25964281152634
H         9.15683720760778   24.58594365516643  -11.65103059730288
C        11.40752235931405   29.00769015709472  -10.86734926972421
H        11.75238672889095   28.08619625028608  -11.32847140637849
H        12.22719644254837   29.42603738247755  -10.28593301470380
H        11.13089320865608   29.71956766026953  -11.64184777369286
C         8.01126781260265   31.73388638028089  -11.34104307262901
H         7.19711647584852   31.70298941206387  -12.06104759133901
H         8.95331959168796   31.55863389224283  -11.85647764068546
H         8.03803474184411   32.72241069110886  -10.88632960149232
C         8.48017607800592   26.89960930690366  -15.84783279916281
H         7.44918360921326   27.20540032801152  -16.06555850731302
C         9.34571564127211   28.15105693910766  -15.74905102597969
H         9.28103429858779   28.73245890874978  -16.67246323655804
H        10.38892947330660   27.85285088258188  -15.60550701269289
C         8.96688524305797   25.98332849615617  -16.96392404652148
H         8.40678236499502   25.05043250869871  -16.97560189462698
H        10.02595272120200   25.75573575904142  -16.85445513076943
H         8.82367695598593   26.47547439229689  -17.92494145690858
C         7.48624795087697   24.60286099107846  -14.41870943139787
C         7.82299920741078   23.42898884347653  -13.74562751321836
H         8.68622990064554   23.40251922413009  -13.09564286052291
C         7.07820561179166   22.27639165040396  -13.91238613630677
H         7.35976404693882   21.37873170760912  -13.38097831213945
C         5.97788583098371   22.27554272461056  -14.75272343023469
H         5.39344128016086   21.37667283316864  -14.87976269482402
C         5.63557630892699   23.43403632354197  -15.42826450319738
H         4.78046639601457   23.44570012925298  -16.08717455503967
C         6.37925281736675   24.58908031914073  -15.26507779154599
H         6.07806876888518   25.48040175381081  -15.79126908652503
C        10.17207197005580   25.49774302998990  -14.12500230211759
C        11.10270310372025   26.30105404326363  -13.47771279609662
H        10.72953698643693   27.17824505394723  -12.95711321001465
C        12.44868471046960   25.98454219205599  -13.48996951406902
H        13.16449983573597   26.62043518748185  -12.98716053470909
C        12.87453094221287   24.84254105199779  -14.14767940120722
H        13.92286119795425   24.58420185104826  -14.15968872709183
C        11.95257101856207   24.02926717535460  -14.78697841616162
H        12.28496405264525   23.13723986165786  -15.29748082559324
C        10.60690030157554   24.35245739679687  -14.78403788238855
H         9.90020177113476   23.71138677461270  -15.29019525541093
C         7.73235480874503   30.42081915958411  -15.13472473929728
C         6.54173986971271   30.79279207793138  -14.52601680815344
H         6.26522861529784   30.32663920983000  -13.59137228606313
C         5.70763295641170   31.72848621219601  -15.11041710083442
H         4.77832430218431   31.99588950213617  -14.62989212646037
C         6.06535826566284   32.31229857233957  -16.31230891108168
H         5.41612962213851   33.03849478093705  -16.77813563826173
C         7.26583771951741   31.96929197978001  -16.91483090274031
H         7.55636121048847   32.43603833588954  -17.84493836673593
C         8.09941205507267   31.03552713793767  -16.33005438678955
H         9.04809913068854   30.80621362985575  -16.79620596252390
C        10.31683040354262   30.27255515779984  -14.17467660844044
C        10.17478104486595   31.65261293409726  -14.04051598957444
H         9.18974390445947   32.09622158521594  -14.04731426737703
C        11.28337739656405   32.47158039301040  -13.92553215835704
H        11.14864311384912   33.53847199306141  -13.82478276611083
C        12.55729877659632   31.93003320171937  -13.94546470032272
H        13.42273779000684   32.56971628836766  -13.85996711959435
C        12.71172301167718   30.56117824550424  -14.07961185212396
H        13.70039017931546   30.12621898545271  -14.10058323935020
C        11.60343320633832   29.73998942339497  -14.18573808863546
H        11.75647984284852   28.67590519620720  -14.27821795496375

