43
CSD_code = KEJZOO | q = 0 | S = 0 | Stoichiometry = C20H16N4NiS2 | MND = 6
Ni       -2.28710462382297    0.52162536662773   16.13414253214579
S        -0.50272063731151   -0.71667999331701   15.28889501617945
S        -4.09970588607702    2.08936034983246   16.53849488462557
N        -1.72109451424995    0.67270104391160   18.33169255865691
N        -3.28198213372509   -0.84605944625976   16.79847268307038
N        -1.10032505153004    1.74745048284038   15.47442870535044
N        -3.59309663445806    0.95868201384098   14.25174202219997
C        -1.03651156617058    1.57501549246249   19.01460298676789
C        -1.19612320332231    1.77066076266949   20.37751452433879
C        -2.12354662739916    0.99116986849267   21.05020706424959
C        -2.84094463589957    0.04268169246965   20.34351578938241
C        -2.60861374969512   -0.10014876150278   18.97705179033639
C        -3.32314216479843   -1.06751136416554   18.12886442347705
C        -4.00389701301300   -2.16424489721648   18.65260526829229
C        -4.66486758053058   -3.03230354055452   17.80478013100497
C        -4.62338924876435   -2.78488666155326   16.44076462352392
C        -3.91671100834292   -1.68802342647530   15.98416902684996
C        -0.14103585631738    0.93064063754835   14.99625164429320
C         0.99329109655959    1.43999015467234   14.35237899037853
C         1.10978043780918    2.80316386156764   14.22009830258663
C         0.10832780546976    3.63417676513145   14.72623864282085
C        -0.98538966888822    3.06236920334335   15.34621479426308
C        -4.40080786344278    1.84587297428837   14.86544856415901
C        -5.41171768465096    2.52271334138669   14.17014685668935
C        -5.56435193493300    2.28184545287336   12.82526694922982
C        -4.71577360768992    1.37502637619551   12.19235921637031
C        -3.75198278049317    0.74268251976835   12.95319407077424
H        -0.32755725254466    2.16539029655867   18.44809870058155
H        -0.61397668916031    2.51634367733522   20.89500187181542
H        -2.28840981799372    1.12188678115264   22.10940752441482
H        -3.58302820499052   -0.55790631818141   20.84408434591827
H        -4.00044278494402   -2.34262920706208   19.71566993520097
H        -5.19622716126243   -3.88558006263194   18.19750989807632
H        -5.12265198293472   -3.43383591112927   15.73943628081192
H        -3.85328425437636   -1.47398903529369   14.92338532582085
H         1.73823940490670    0.75545504581389   13.97931931407663
H         1.97051934298577    3.23236078875155   13.72773374141294
H         0.17829910931534    4.70595493758327   14.63571944309415
H        -1.78870267931413    3.66633293443427   15.75036645671550
H        -6.04003766041190    3.21832633748785   14.70296531728311
H        -3.06829712255040    0.02790852792852   12.51006835120946
H        -4.80622627627367    1.16895941758124   11.13774492484079
H        -6.33317963476267    2.79275152079160   12.26294650670647

