59
CSD_code = KEKBUX | q = -1 | S = 0 | Stoichiometry = C29H5F20MoS4(1-) | MND = 9
Mo       16.05095378473536    5.56494390776373    4.26292453175944
S        15.36447808918523    6.61517335651166    2.05614212691801
C        12.97276208978600    5.23138846850212    1.78676645852791
C        11.64087909584050    5.13364956627129    1.41818617256613
C        10.99147555317731    6.22477276901256    0.85201718066082
C        11.69639380805767    7.40899823621417    0.65730904798414
C        13.02361710942304    7.49498431317302    1.04422597665527
C        13.69804191062487    6.41686628509016    1.63406043203338
F        13.57677685306214    4.13964389686459    2.28487988181030
F        10.98040303808082    3.97797346805278    1.58452301770563
F         9.70557020231651    6.13072322911338    0.48084207838689
F        11.08527774518196    8.45762008527530    0.09065651133621
F        13.68010833734193    8.64305750989817    0.83983997101205
S        17.40588394997766    7.52273840364848    4.45567900354283
C        15.81136530482172    9.38870922004724    3.29905845799941
C        15.51136915571741   10.43686095351990    2.44431877151899
C        16.45831616631833   10.84600552356185    1.50823267680515
C        17.68736362273965   10.20094502548430    1.43977242714801
C        17.97749993866274    9.15903608827759    2.31129131447752
C        17.04534411450222    8.73243416937224    3.25235077047611
F        14.90187298216719    8.96667669545077    4.18353480222657
F        14.33593410404534   11.06496295084860    2.51878073799129
F        16.19102629209430   11.86354851337125    0.67969035772970
F        18.59534845916498   10.59418700522238    0.53430218929692
F        19.16750732301142    8.55137117992945    2.22637079956248
S        13.79200780910720    5.99550610570524    4.68681395942927
C        13.47404518611143    4.43417115886360    6.90723637747626
C        13.08211502105961    4.17168154243190    8.21007102696072
C        12.50450695448417    5.18403199908192    8.97006278890904
C        12.31075821502186    6.44234598094512    8.41048995258254
C        12.70074566041638    6.69026736711847    7.10003126898846
C        13.31234731804980    5.69625882390200    6.33556860345289
F        14.02181045161308    3.45389985888226    6.17578792369391
F        13.24822544525858    2.95223903359694    8.73869718921981
F        12.12088073607556    4.94270476814406   10.23150444287095
F        11.73433389921910    7.40683022581305    9.13946586565214
F        12.48028922172696    7.89370937754376    6.57509105780213
S        16.28741035135945    5.60366616950305    6.83776263031559
C        16.60582584418140    8.24974759352948    7.36187261137454
C        17.29661609362549    9.37501962440876    7.77735243608745
C        18.62264470772832    9.25536397489854    8.18647512331974
C        19.24165903927739    8.01129224085140    8.16388570465246
C        18.53948150819694    6.89424397674112    7.73373494932560
C        17.21026183114371    6.98801140779302    7.32157766345981
F        15.33384290766869    8.35814520733557    6.96568744759918
F        16.70393048486719   10.57669314054520    7.79837014029094
F        19.29831235291541   10.33712850439590    8.60299784492295
F        20.51937260334826    7.89736796026991    8.55794263493027
F        19.16520090878305    5.71073257941747    7.69859301045959
C        16.80807311347607    3.44766761402458    4.83789522255378
C        17.90087308402969    4.26936615376741    4.43011220627476
C        17.72912771172891    4.55384161177220    3.05667586873169
C        16.54486008363445    3.89915159660974    2.62679416412792
C        15.98838971812401    3.21590124101657    3.71768263285478
H        16.71561479321751    2.95977176480745    5.79787541239380
H        18.78694130576111    4.46830380227308    5.01928991620059
H        18.44845857354383    5.04053119970110    2.41080617189310
H        16.19402918515826    3.85137040493027    1.60588201406186
H        15.12203885006666    2.57266516763916    3.69105804011435

