63
CSD_code = KEKFIP | q = 0 | S = 0 | Stoichiometry = C32H24Cl2N4Ru | MND = 6
Ru        2.22547274973670   -0.57717227321644   11.85315440180343
Cl        3.37730504925986    0.72419758854038   10.23958401412835
Cl        4.15822219773006   -1.36905940819344   12.97559820971514
N         2.37759516508879   -1.90225293484009   10.37724771124899
N         0.47693668542395   -0.23063422099252   10.86613295761490
N         2.38428149453684    0.79942486436422   13.27815461091401
N         1.05507259380429   -1.40647955713836   13.29779076685896
C         3.50914953236963   -2.54695785651107   10.09162339180996
C         3.72173528272641   -3.18796712787473    8.88814976774659
C         2.72017973809434   -3.17336512922757    7.92530660954547
C         1.54858906802209   -2.50086655034227    8.20928488615418
C         1.40790527170647   -1.86784783956839    9.44208933136474
C         0.25015385157000   -1.08187423127839    9.83701109974689
C        -1.00492592819545   -1.22397745471495    9.25255298491440
C        -2.07064555862287   -0.49387325323845    9.74212531762673
C        -1.82839229043838    0.40261025630002   10.77193868910185
C        -0.54385078900843    0.53597069986169   11.28319896256994
C        -0.27796394959272    1.61933855377300   12.24477829294915
C         0.67848127961561    2.58097053294477   11.92796892012751
C         0.88035191457614    3.65600653672938   12.77517224931989
C         0.14587422893945    3.77173355976648   13.94362420340906
C        -0.80877232182047    2.81867184335775   14.25881541994264
C        -1.03324979974792    1.75394465972133   13.40594905721386
C         3.28798634734441    1.77917143869492   13.24553767625817
C         3.62839601805453    2.52027546758117   14.35868397091178
C         3.00648701572460    2.24829411886350   15.57098781898501
C         2.07712934121469    1.22856128606408   15.61611210294109
C         1.79161114010581    0.51472190242591   14.45455202677953
C         0.88139826515515   -0.61689500993777   14.38478934572917
C        -0.12300372584037   -0.85055693658096   15.31946718578554
C        -0.99265468609349   -1.90792071185324   15.13442717412637
C        -0.78972455471239   -2.73592030540700   14.04057631408671
C         0.25943858557155   -2.48022212390583   13.16725822090322
C         0.56554694094418   -3.47153049424321   12.12169369532162
C         1.82556925294133   -4.06491222484165   12.10556695001874
C         2.10485548437455   -5.06191480165802   11.18799704149003
C         1.14187619006788   -5.46147066637780   10.27618343653942
C        -0.11294697380454   -4.87502659062256   10.29252629423904
C        -0.40799534163750   -3.89478997453558   11.22194695257298
H         4.27183497040297   -2.53029003000431   10.86094502818139
H         4.66269460924412   -3.68092217646693    8.70440258099929
H         2.85939552376254   -3.65806565432111    6.97141871511275
H         0.76219594585227   -2.43152489490442    7.47496135442500
H        -1.13971361741907   -1.92274049605154    8.44348095200809
H        -3.05922542146996   -0.60407329926594    9.32454278161714
H        -2.61509651595847    1.02922927029214   11.16199031643859
H         1.25412414512191    2.47968404076279   11.01859297197154
H         1.61628405819360    4.40407049633748   12.52215497475963
H         0.31295689652658    4.60706335429220   14.60724576846249
H        -1.38541476550303    2.90999870998272   15.16764267846400
H        -1.78099248340110    1.01085729422429   13.64642217192871
H         3.75833102822578    1.95927778036336   12.28629190000728
H         4.37751703422158    3.29133154560704   14.27822036303063
H         3.25588507114678    2.80569317616099   16.46052521113090
H         1.60085372192678    0.95914986052692   16.54508836357115
H        -0.23081769666866   -0.18828172854729   16.16256088257293
H        -1.79583764270228   -2.09568809458934   15.82974299132947
H        -1.41211500945716   -3.60095111668158   13.87304159012561
H         2.57538577815360   -3.74143481201461   12.81378837160608
H         3.07930173675403   -5.52629690804579   11.18422443554066
H         1.36667498447489   -6.23324541207401    9.55512120773578
H        -0.86603782223347   -5.18781792162224    9.58413710666787
H        -1.38805929437720   -3.43842861584545   11.24099921979097

