38
CSD_code = KEKJOA | q = 1 | S = 0 | Stoichiometry = C14H17N3O3Re(1+) | MND = 6
Re        3.33941916814500    2.53807390159758   -0.44592230493943
N         2.01654212556692    1.15921412116209    0.90749170436716
H         1.11558168592090    0.99723116336806    0.44578581085750
H         2.40557233851609    0.23079838618976    1.08800046515790
N         5.30057835637476    2.53824065100030    2.07371446561084
C         1.95069935844037    2.53887721852666   -1.83903572710306
O         1.14842311988990    2.53993130004915   -2.64064650544814
C         4.33483067958984    1.12969776797546   -1.37702737718265
O         4.89052270550498    0.27404576329918   -1.88327518920558
C         4.63513930539515    2.53799066788543    1.12928266356281
C         6.17193691067232    2.53823485728840    3.18080173420486
C         5.31279985800414    2.53682842224046    4.44788646814014
H         4.67959430490780    1.65272772844159    4.48533273693507
H         4.67809831890101    3.41981730426011    4.48627167424611
H         5.95840004234528    2.53690615153169    5.32082785254827
C         7.03376768698691    1.27681635055132    3.09270138495276
H         6.41613762418892    0.38234441088122    3.13120092617264
H         7.72709436426533    1.25472814291804    3.92819272623696
H         7.60442371053409    1.26702150239352    2.16715966767873
C         1.80096786911316    1.84031986716538    2.16560356990132
C         1.64292588761552    1.15038024273196    3.35664253114776
H         1.65357958816708    0.06995523300620    3.35678959035917
C         1.48378480146391    1.84651224775591    4.54354856554178
H         1.36366297227809    1.30504521718370    5.46791522437150
N         2.01691914354375    3.91765832826524    0.90739206281700
H         1.11597471193204    4.07981381969369    0.44570660001694
H         2.40613951484231    4.84600619473038    1.08785417173557
C         4.33503145858878    3.94613635150744   -1.37737592686004
O         4.89155280874058    4.80146595612000   -1.88328006050903
C         7.03180527703314    3.80108654630547    3.09414048935374
H         6.41281047199988    4.69456110291361    3.13389770439351
H         7.72523021455815    3.82315122059301    3.92954889070919
H         7.60229876135898    3.81293397673884    2.16851971051193
C         1.80118551633844    3.23668137123855    2.16555883451690
C         1.64335793249824    3.92674798963939    3.35655043836125
H         1.65429409100902    5.00716936418295    3.35660600567165
C         1.48399533568628    3.23074152485651    4.54350499405913
H         1.36402197908295    3.77230763381184    5.46783342710768

