66
CSD_code = KEKKUH | q = 0 | S = 0 | Stoichiometry = C31H27NO6W | MND = 6
W         2.10484260548495    7.35974710879640    4.15679196196026
O         1.80023984983954    6.03245854528933    2.76519723039456
C         2.74554444542849    5.12920075381328    2.49913930962969
C         2.74377146618004    3.88422397618342    3.16658531924358
C         3.76519999877151    2.98097098488569    2.92171945767794
H         3.77147157961472    2.03785350391484    3.44959065299000
C         4.76525498358366    3.26554019369225    2.00677579597806
H         5.55132722575334    2.54779933552298    1.82346166160621
C         4.73557794392983    4.45926238873285    1.30679563919027
H         5.49809515225464    4.67246323017029    0.57091185488101
C         3.73592255859420    5.39355731776847    1.52746651917842
C         1.65109237255895    3.57262221053410    4.17119355619813
H         0.81624411056099    4.26974953865444    4.00745417313134
H         1.30469975587496    2.54739416714868    4.02536964494113
O         1.69074759979582    6.06142579621895    5.42322056288690
C         2.20881138047616    5.04422266135215    6.11323982373365
C         2.80820543451646    5.28000423628191    7.36463522638878
C         3.31363535127152    4.20623196851177    8.08058395046855
H         3.76357526948440    4.37824106953463    9.04781545951440
C         3.24151377702185    2.91867456150201    7.57281698695259
H         3.62382196332702    2.08967109525004    8.14927023322020
C         2.68901872370054    2.69506349732416    6.32158446731359
H         2.65328083709392    1.69203776372428    5.92138617497124
C         2.17285838195818    3.74363963182221    5.57674663486520
C         2.95219302897777    6.71103107773205    7.82146521912637
H         3.04529884283714    6.74688825823287    8.90882554952987
H         2.06570691153091    7.28213383822705    7.50901722345461
O         2.81445759243619    8.46531639976349    5.59561882914095
C         4.02856759536470    8.20999455846239    6.08606324619213
C         5.17023279405140    8.83033326930797    5.53198096346659
C         6.42414052928562    8.50787096199681    6.02638328298292
H         7.29510527776792    8.97639467088745    5.59003283705111
C         6.57230825904634    7.60692247123364    7.06673574885380
H         7.55660403592279    7.36624103651571    7.44086529235394
C         5.45081878866464    7.03851455447314    7.64758358846996
H         5.56262204904780    6.35582277126649    8.47802544701602
C         4.17886412049824    7.33907925937627    7.18803794346867
C         5.01699131315287    9.82263883505023    4.39616318135453
H         3.96487779784470   10.14220672105157    4.35420077067296
H         5.65453538998874   10.68920658722385    4.58352416338431
O         3.21092427674244    8.26326282831384    2.98585845628521
C         4.43170157997005    8.36326901634473    2.46198351169713
C         4.74720270125955    7.65321329918607    1.28973299311616
C         5.99838194121582    7.82555253192102    0.71927023991826
H         6.24392792286697    7.30012316127978   -0.19228450424881
C         6.92931891725797    8.67314144563128    1.29943678244233
H         7.89219157945115    8.81443118566045    0.83268564145489
C         6.63107135802315    9.33369517998329    2.48115827064152
H         7.36778742859056    9.97940731879793    2.93686628382179
C         5.39000414337594    9.18657761403660    3.07954154615462
C         3.70955131665261    6.69733712767841    0.75405266936332
H         2.71276366643012    7.14907130669403    0.86891109478300
H         3.89994973060745    6.49637622811526   -0.30225987478731
O         0.63624153809521    8.17896734122647    3.97852704870903
O         4.25576757752445    6.19547118676180    4.38680798993163
C         5.01214433466132    5.34415686956265    4.87781294740373
H         4.65417004106284    4.64176689072601    5.64147896995009
N         6.28131233637889    5.17160654273971    4.56879685889758
C         6.95389248878107    5.98334066676158    3.58490957792474
H         6.24277787909433    6.68726643598387    3.16387048101715
H         7.35010318985787    5.35067329739451    2.78987237421223
H         7.77327989631150    6.53262111412183    4.05018464283429
C         7.08322800493510    4.15942730839907    5.20623247502926
H         6.48627064653761    3.60192656246155    5.92407351791911
H         7.92259915164633    4.62508872626510    5.72605803940992
H         7.47505925917377    3.47007800652393    4.45614638228428

