35
CSD_code = KEKKAN | q = 0 | S = 0 | Stoichiometry = C17H13CrNO3 | MND = 9
Cr        6.35008935425857    2.98166744766192   14.65753397677551
O         6.85749629033982    5.89807105020895   14.38768840929501
O         3.71263986529776    4.11048953578534   15.45003031094262
O         5.31737759388693    3.62610771873571   11.94216592309047
N         7.41617746835039    0.31563097286348   12.78565280073646
C         6.70243961454592    4.75940352342888   14.51541619167316
C         4.72833600798330    3.63086811570684   15.17495658374450
C         5.71226748076705    3.32177899714830   12.98707174674715
C         7.23929094462383    0.90609730941930   14.01019411601569
C         6.25550166463765    0.67449096191936   14.98186510443436
C         6.38579376265066    1.33925347337631   16.21395251798737
C         7.46084676414536    2.20209714275156   16.48179432332205
C         8.38724808103845    2.50995187066765   15.47545312999741
C         8.29937201137340    1.83658052970544   14.24326757124169
C         9.12085308068086    1.80910569273946   13.06520362532199
C         8.52617869728778    0.87636238191216   12.18269630314107
C         9.07100482144037    0.63273562696987   10.93205833659164
H         8.61929273237924   -0.06456735985076   10.24346381230766
C        10.21896987468394    1.31998413905975   10.58146269194335
H        10.66021803916413    1.14740933167661    9.61140111215441
C        10.81526879678791    2.23176990144399   11.44811218867047
H        11.70911180003443    2.75000300115008   11.13610476689979
C        10.27564742955887    2.48652810019161   12.69295974794801
H        10.73114464509848    3.20246029184800   13.36017737915674
C         6.47639894074497   -0.57370306612681   12.15146227017166
H         6.08223662258494   -1.26000234091984   12.90759513653449
H         7.01798384166827   -1.16723137273668   11.41110423612641
C         5.33463845746835    0.19018277326608   11.48452364260754
H         4.77954731685519    0.76953321984979   12.21969344651405
H         4.65510427040346   -0.50473794203035   10.99871219287580
H         5.72627948445264    0.87764740660209   10.73902857755174
H         5.47308037825072   -0.05873588626904   14.83662398451469
H         5.69098905641211    1.09851564699497   17.01087918328497
H         7.57728007201715    2.62297452070114   17.47281723848363
H         9.23859473812726    3.14587728414883   15.68827742119607

