93
CSD_code = KEKLAN | q = 0 | S = 0 | Stoichiometry = C36H48F4P2PtSi2 | MND = 4
Pt        2.22646506977392   -4.12634602635765    0.31629521398767
P         4.27616768532141   -3.29232555045873    1.36376210082899
P         0.83928328173721   -3.58017328376933    2.29916874933355
Si        2.90287143892695   -3.90057236881251   -1.92361804146858
Si        0.75892868529213   -5.82946591966667   -0.33333740984332
F         5.96990169740544    1.23790469260675   -2.81321825068087
F         6.42823888827333   -8.24605203612293   -4.15669700232777
F         2.86974776189594   -9.87430897020176   -4.26339113232939
F        -4.60444777385478   -4.26877807257012   -2.61130496795035
C         3.88585517219870   -2.27586886514335   -2.21204882778301
C         5.20144471890626   -2.28997338289934   -2.66223158284954
C         5.90996094337396   -1.12046498072769   -2.87461739594127
C         5.28286029945148    0.08606112017877   -2.62705247046103
C         3.97130278533509    0.14641681523070   -2.19626501990173
C         3.28753154442739   -1.03961044676432   -1.99868025264399
C         4.00362519141343   -5.28518456450769   -2.63019698809187
C         4.52132069079967   -6.27786214223501   -1.81016607689091
C         5.33476053355645   -7.27940730426052   -2.30686808132336
C         5.62239075867937   -7.28182640721439   -3.65842927515362
C         5.11305127470306   -6.32100203044763   -4.51227785446234
C         4.30687176602805   -5.32891041171124   -3.98503204136769
C         1.39420404655997   -7.13262823964885   -1.56550253334641
C         2.08779635726902   -8.25560382596624   -1.13417010587886
C         2.58573627028483   -9.18651279685704   -2.02695486915953
C         2.38404228582518   -8.97546444644142   -3.37742084525391
C         1.69305224531019   -7.87433656046233   -3.84671953740731
C         1.20240192223378   -6.96379778974281   -2.93049388335762
C        -0.93676143723219   -5.32149209605372   -1.05039831293607
C        -1.15160907856163   -4.05309536553318   -1.57571191543151
C        -2.37599333388788   -3.68623329949119   -2.10543269595321
C        -3.39815235429434   -4.61651210430556   -2.10482547903472
C        -3.22330302056288   -5.89071662271653   -1.59774104716723
C        -1.98829897029705   -6.22945948329816   -1.07521707550717
C         5.82826481961468   -3.45434485899175    0.36881314523747
C         7.15302618104261   -3.55567348787625    1.11436372194847
C         4.59609907972837   -1.73973166522842    2.32607686956756
C         4.50851827396595   -0.50196246246110    1.44305287207539
C         4.52829266648131   -4.54382810214962    2.70150499075301
C         4.28097741247611   -5.94621317748007    2.15771668739875
C        -0.93012706534696   -4.10363654386783    2.15501936906846
C        -1.94225287647156   -3.49195471377994    3.11516364467194
C         1.12432797504721   -3.70791578549140    4.12930472489722
C         1.10876406986778   -5.15643255002463    4.60019768002671
C         0.71705595532016   -1.74351412055326    2.13856934990665
C         0.46326871192525   -1.37903496942369    0.68155954038336
H         1.83610195178225   -3.73001376657069   -2.96471329001645
H         0.39994794585572   -6.69750352727908    0.85207191694066
H         5.68224685548167   -3.23726171591347   -2.85716425934626
H         6.93031529745275   -1.13332966496266   -3.22608514458303
H         3.50625392501081    1.10539662936262   -2.02676274894868
H         2.25604880857699   -1.00074666753150   -1.68362715954440
H         4.26474774843388   -6.27284214942469   -0.75954319362151
H         5.73920788331542   -8.05170278724029   -1.67083310805139
H         5.35059795798474   -6.36018583563505   -5.56409815663560
H         3.90505747693302   -4.57004839089169   -4.63985237917192
H         2.24110945604690   -8.40648305625689   -0.07560837224792
H         3.12377106336008  -10.06139637815360   -1.69581517933866
H         1.54934304413142   -7.74434921389622   -4.90801263306791
H         0.65457101825551   -6.10325366031015   -3.28267572501648
H        -0.33839498493507   -3.34079738002914   -1.57245945556337
H        -2.54572448005680   -2.70241964065827   -2.51552080027396
H        -4.04250545763405   -6.59271063747533   -1.61889181858662
H        -1.83554365126551   -7.22220697753204   -0.67914847357657
H         5.69604038728230   -4.33126551691414   -0.27038190833695
H         5.84448134859122   -2.58667753237692   -0.29518363921914
H         7.22170572719914   -4.47615836322026    1.68881546083732
H         7.96703331253263   -3.55663186003667    0.39176583795151
H         7.30687728065010   -2.71270277094818    1.78412185523523
H         3.84422599905401   -1.68751802498824    3.11946310155204
H         5.57457468906896   -1.80381580451226    2.80803163518237
H         4.58214082178367    0.40430969789913    2.04176909963337
H         5.31118799679679   -0.49021905538675    0.70923903157174
H         3.56440126202786   -0.48468489322391    0.90106848228101
H         5.52831572416984   -4.45253505070634    3.13181895107630
H         3.80672015871188   -4.32458786351271    3.49116276067676
H         3.32805068212742   -5.96795384470546    1.60863324020021
H         5.07791866764244   -6.24285772192394    1.47874255204016
H         4.23354971987474   -6.67699310042919    2.96393300911589
H        -1.21855791233359   -3.89041018717363    1.12253910411108
H        -0.93700648635781   -5.19153906079148    2.25276511571726
H        -1.96228972065452   -2.40732782840497    3.04238754283756
H        -2.93536919080978   -3.85793793414422    2.86163957466685
H        -1.74003033538653   -3.76880261403586    4.14684098962514
H         2.09388387069706   -3.25001139240795    4.34654814056377
H         0.36482262497086   -3.12010194380313    4.65008949689943
H         0.11545862753744   -5.58539248471221    4.49218767923561
H         1.79871904830504   -5.75804474992042    4.01098217653494
H         1.39771625665446   -5.22445407826106    5.64777849415892
H        -0.06088758462264   -1.34458553614555    2.79377464802718
H         1.67269585045477   -1.32419721495516    2.46315575102935
H         0.62422510843665   -0.31638058338091    0.50656611457322
H         1.15202267428205   -1.95551263221047    0.04484139706681
H        -0.55644101737510   -1.62401003060192    0.39199659768737

