57
CSD_code = KEKLES | q = 0 | S = 0 | Stoichiometry = C28H22O6W | MND = 6
W         5.23724865079976    2.22057889065029    3.33882238551959
O         6.19830400434092    1.42715630965285    4.74840303583481
C         6.84658892473292    1.86377539443840    5.83765328777289
C         6.16324481981179    1.98873339356057    7.06192907593122
C         6.85211883428359    2.43232341962248    8.17949683004194
H         6.32909608686489    2.52563175234248    9.11989846178291
C         8.19916003224132    2.74350600733260    8.10681430382933
H         8.72480607920162    3.07896633972585    8.98764696490405
C         8.87281717266121    2.61528576584622    6.90424572771288
H         9.92558456781858    2.85076688575951    6.85007564269707
C         8.21756367955324    2.17499630144304    5.76526026126376
C         4.68502294756741    1.67379562212496    7.10873505456243
H         4.45335977580284    0.93599701512115    6.32684317483058
H         4.42774591739909    1.26329273307414    8.08659903541017
O         3.77308647442482    2.38528210931954    4.53476107753023
C         3.47756823456459    3.22497879780638    5.53558031548380
C         2.75321632294765    4.40690963359731    5.27678396029533
C         2.45249855135713    5.26194052389810    6.32614966375794
H         1.89194958786190    6.16334598963601    6.12745454292823
C         2.84799149637579    4.96698278711240    7.61986571781619
H         2.59613120340814    5.63609278809092    8.42807155167576
C         3.55730866091615    3.80553032159468    7.87594036588539
H         3.85858992269157    3.57165157615593    8.88617152763770
C         3.87802042827817    2.92582094348728    6.85384962874068
C         2.35835542827584    4.72856475788266    3.85336158956818
H         2.27735645154474    3.78965873193639    3.28666611697071
H         1.39604634055974    5.24312479406923    3.84696826550291
O         4.49674018999473    3.65795893149196    2.36914685150750
C         4.45997343004207    4.99166858312306    2.49701786960753
C         5.46239294397484    5.78605244412213    1.90829572136793
C         5.40211589711432    7.16378088756300    2.04566048245693
H         6.16927944487294    7.77344317003257    1.59141651165757
C         4.36849428687383    7.76443697155780    2.74389282214518
H         4.32907914600372    8.83919188117046    2.83317386109405
C         3.38010437047006    6.98408887634483    3.31904594437538
H         2.56965245027466    7.45330538449203    3.85721628798753
C         3.40698059273888    5.60328281931010    3.20403629127666
C         6.59838271888244    5.10731490787795    1.17666535574669
H         6.24294143949417    4.14344042600409    0.78438799021080
H         6.93076588787590    5.73788807893829    0.35036959150365
O         6.90778732523014    2.67097440083393    2.56157984067155
C         7.82680946205832    3.61749896162513    2.79192424925313
C         8.87970431743327    3.37627263821318    3.69809917512933
C         9.82463748611073    4.36653185412573    3.91825703894052
H        10.63493083445425    4.17815257496502    4.60675432796902
C         9.74952303653687    5.58147766427153    3.25803239677224
H        10.49947264935808    6.33778017139875    3.43095465628612
C         8.71688718069191    5.81942503278548    2.36660102976841
H         8.66387192994793    6.76375022417661    1.84544705178021
C         7.75249445786219    4.85458581380545    2.11951575511207
C         8.92490851613794    2.05689022865612    4.43389190558927
H         8.41529079024597    1.29426132134545    3.82710418385828
H         9.96317974265009    1.76185023875865    4.59475910205614
O         4.77487557172978    0.87767252425819    2.41117232961972
O         5.94680538011358    4.28530439096672    4.75878131996393
H         5.38691571397288    4.75172952152153    5.39738181388237
H         6.76992221056815    4.78619949098301    4.65807067652342

