44
CSD_code = KEKQOG | q = 0 | S = 0 | Stoichiometry = C14H25Cl2NSiTi | MND = 8
Ti       -4.72663739835332   -1.71701128014269   -3.93885678755310
Cl       -6.07954635914488   -3.23269175400055   -4.73020677559410
Cl       -5.77614173945757    0.07156259771181   -4.60127239489250
N        -3.19237168147534   -1.78827776690337   -5.05473492868064
Si       -1.82513927229671   -1.74662970957198   -3.99176817529231
C        -3.00959260823950   -1.77907646057139   -2.50851121103458
C        -3.68181597433935   -0.56397494037579   -2.16835762980597
C        -4.95644265351469   -0.53591600620734   -1.68459201952062
C        -5.04522364030703   -2.97675830638117   -1.86225986139621
C        -3.74343583750675   -2.98128683952992   -2.29575694995673
C        -7.16999351805748   -1.68637570508950   -1.60301673040226
C        -5.57629075966377   -1.88634875521800    0.32816464761346
C        -0.64203307399551   -3.25158485349312   -3.98103747198790
C        -0.79755733780664   -0.13289326483309   -4.03418209842807
C        -3.17228468464086   -2.01288055708841   -6.49029084593451
C        -3.17863614100358   -3.52969328349764   -6.75137808937845
C        -1.91351382866231   -1.39468747480307   -7.11442839930024
C        -4.39735178151192   -1.37175994685874   -7.16206028369054
C        -5.68538292401164   -1.77187109702612   -1.20866457444812
H        -3.16839974362891    0.37753563302188   -2.36118878275678
H        -5.42238393842515    0.41513783376495   -1.43954330690579
H        -5.56807008960339   -3.92196080555793   -1.72424281028152
H        -3.28359292416750   -3.92908222813989   -2.57992656827872
H        -7.64002468434149   -0.82814703283119   -1.12539355028801
H        -7.27440544995024   -1.57915603444576   -2.68938252578492
H        -7.69856329374937   -2.58578691202885   -1.29021482085677
H        -6.09597471692886   -2.77475817904195    0.68075543322493
H        -4.53008757289264   -1.95444720226950    0.62037493161972
H        -6.01527043232399   -1.01263640229386    0.80507337896956
H        -1.17861822161681   -4.19443333237411   -4.02330053907711
H         0.03468966051198   -3.21955930431266   -4.82816348415923
H        -0.03477748029636   -3.25464903048392   -3.08194910432264
H        -0.33658930421946    0.05917020861102   -3.07097862863627
H        -0.00219308277633   -0.19521988319046   -4.76823789081644
H        -1.41522600063406    0.72386802776341   -4.28806637484411
H        -4.03604620466809   -3.98475767485958   -6.25360519972090
H        -3.24065813532721   -3.73248640883925   -7.81762367900344
H        -2.26784972039128   -3.97628682788393   -6.35931522967567
H        -1.02046028684217   -1.86814067877359   -6.71676934979977
H        -1.92669149910328   -1.52807430154524   -8.19320541884659
H        -1.87606780589438   -0.33168550155295   -6.89092308327774
H        -4.41045552429231   -0.29866353311892   -6.96561719059129
H        -4.35164665580403   -1.52780840502794   -8.23813578299203
H        -5.32314567864665   -1.81541662071209   -6.78850984321470

