55
CSD_code = KEKTID | q = 0 | S = 0 | Stoichiometry = C18H32Cl2P2Pt | MND = 4
Pt        1.42980034542896   10.46431643445913    3.07525974566653
P         1.94674258683821    8.33129465995036    3.63182373137391
P         1.68042087789411    9.92149161022851    0.89149546007639
Cl        0.82184364922899   12.59972956984179    2.46114151998238
Cl        1.10546058388518   10.95496756470880    5.30265613666405
C         2.23476933230745    7.43933708585664    2.05563500081481
C         2.62928636282652    6.10559940342826    2.03217514141467
C         2.88683128443975    5.46259443726854    0.83440030603802
C         2.77777828072733    6.15691730799546   -0.35832923340108
C         2.41008968426142    7.49074414883086   -0.34802122168516
C         2.12240466446823    8.14237030627100    0.84684196606489
C         3.49236120805152    7.97743720989461    4.59835917127110
C         3.29928243943779    8.33016950926711    6.06922273398322
C         4.59757510787794    8.82563759331332    3.97730944269687
C         0.58378237171046    7.47496350887650    4.55325371872573
C         0.74405314562983    5.97614800744054    4.77583030116822
C        -0.73323701297455    7.79745113592532    3.85618209473914
C         3.03483539374097   10.71662973808197   -0.09946906241826
C         2.65175697273949   12.13946485847834   -0.49202263745617
C         4.27671347015698   10.71484300387698    0.78642463026247
C         0.13327333769653   10.16461411077080   -0.10223002992234
C        -1.03792844624034    9.61348837165402    0.70326461528936
C         0.13965300569764    9.61460083176829   -1.52320114790788
H         2.74949891180079    5.56244376800963    2.95659574134717
H         3.18566313912787    4.42491914214570    0.83308837303913
H         2.99139605923755    5.66385300299258   -1.29496243020957
H         2.35958207908118    8.02946038047306   -1.28144904411517
H         3.74564326838653    6.91529266809778    4.49264366226229
H         4.26221144037168    8.33740458055558    6.57687802193708
H         2.65714805194527    7.61200394887759    6.57364526623088
H         2.85310510411543    9.31978475022128    6.15958833188160
H         4.77779431223939    8.52850578962390    2.94500371259350
H         5.52648257903690    8.71883725665704    4.53413814198148
H         4.30157067412297    9.87602230398661    3.99602282403374
H         0.59202803438151    7.99710145973264    5.51904898920375
H         0.62574896513222    5.43147587412485    3.84129405523951
H        -0.02839285158723    5.63208347313745    5.46221550626768
H         1.71025290758652    5.73226592325942    5.21220723371753
H        -0.83306368925190    8.87974870391411    3.75099449813665
H        -1.57478657906206    7.43251308143000    4.44143564635937
H        -0.77223188604429    7.33751005718420    2.86945971841753
H         3.22527066883134   10.11360689121133   -0.99595531879965
H         3.52653355097489   12.66610893083165   -0.86964803526696
H         2.27305725212415   12.67641433361815    0.37691469339048
H         1.88966814064337   12.15159846845107   -1.26787814373373
H         4.05402585210820   11.23127173373158    1.72214467359846
H         5.10223710714055   11.22801758960036    0.29712186818664
H         4.58857219612595    9.69591069765998    1.01197755696408
H         0.04176929694535   11.25841512010552   -0.12743034279079
H        -0.96915090127814    8.53026081703966    0.79569520651419
H        -1.98213951885532    9.86019770900825    0.22205120482537
H        -1.03511803921618   10.05893054367133    1.70012034527268
H        -0.75200711516858    9.96048853881631   -2.04422399300735
H         0.12069133172640    8.52657024113820   -1.51696699609961
H         1.00709101144524    9.95397181250811   -2.08527335081928

