55
CSD_code = KEKTAV | q = 0 | S = 0 | Stoichiometry = C18H32Cl2NiP2 | MND = 4
Ni        1.45785611117016   10.34115982598913    3.03162117686771
P         1.93161193044727    8.33704840081533    3.58731794179402
P         1.62705892536123    9.90633306899771    0.95055079625546
Cl        0.94173177570097   12.27646276653991    2.39047835743433
Cl        1.25693309630856   10.66872700965930    5.09915895661143
C         2.23523742299167    7.41567215623699    2.02059204680913
C         2.65795872616230    6.09163420060819    1.98197665561257
C         2.91881305163674    5.47036322102810    0.77386891152244
C         2.78469564475120    6.17579420451295   -0.40997061929065
C         2.38930635409662    7.50112461129949   -0.38372515202728
C         2.09867667784629    8.12959371825581    0.82200965237291
C         3.48667780934709    7.96561253672974    4.54368687366661
C         3.32828508800596    8.17333819101256    6.04531657844028
C         4.57276881659417    8.87860946185720    3.98167371331358
C         0.58824699730378    7.44456067429804    4.51429553637064
C         0.75655289695086    5.93754975544452    4.65539580541717
C        -0.75196756391375    7.78928175836732    3.87447095872226
C         2.95390521864422   10.71893790022954   -0.07421494343625
C         2.56221131660986   12.10637874874775   -0.56887076954339
C         4.20020680887856   10.78863110844888    0.80389553845381
C         0.06462737810306   10.14455165905605   -0.03054160089524
C        -1.10706864723399    9.61883331749415    0.79115736866529
C         0.05713503175280    9.55485014632599   -1.43463218380959
H         2.79946626271147    5.53753901138347    2.89682150965353
H         3.24106955516837    4.43966496541111    0.75743002713538
H         3.00196030115180    5.69777080236946   -1.35376132571617
H         2.32143752228098    8.04563261419605   -1.31264674050171
H         3.75533067582790    6.92113511899957    4.34232957027258
H         4.30082304954784    8.08323138544093    6.52705889280083
H         2.66470463532822    7.43344734839952    6.48621177349356
H         2.93139140428366    9.16514963580757    6.24959578645816
H         5.50189231151248    8.76567348556025    4.53704835208106
H         4.25159761884569    9.91982031334148    4.05715139972619
H         4.76725119258696    8.64505134457808    2.93536117064135
H         0.62310683708754    7.91725204274593    5.50394041697704
H         0.62914894937653    5.44094587927732    3.69543687953432
H        -0.00800660586672    5.55666834051953    5.33147344365018
H         1.72773279786528    5.67399266709423    5.06834881315850
H        -0.85302796611030    8.87403770623215    3.79546127321229
H        -1.57405575436156    7.41542289741719    4.48158264619413
H        -0.83008692570744    7.35104508453258    2.88019609498440
H         3.15433432935381   10.06481793467897   -0.93190255103490
H         2.23366249301652   12.72513888610577    0.26307637684173
H         1.76515681620741   12.06048991441112   -1.30696037500667
H         3.42514358345899   12.58077233996378   -1.03402578520088
H         3.96905175165988   11.32617727978096    1.72627482965306
H         5.00641491763509   11.31321530203230    0.29467757824916
H         4.54769334846159    9.78766512986526    1.05754704035459
H        -0.02234623681294   11.23700683925526   -0.08507690518295
H        -1.05604094662485    8.53495446215107    0.88799171309361
H        -2.05288015359565    9.87866722867135    0.31983642086325
H        -1.08824863033921   10.06752583726967    1.78677474709291
H         0.91280890116347    9.88578864289437   -2.01901350536106
H        -0.84539843428542    9.87935453353043   -1.95115257841888
H         0.04725153165687    8.46719658412816   -1.39899858902585

