36
CSD_code = KEKWUU | q = 0 | S = 0 | Stoichiometry = C18H9MnN4O4 | MND = 8
Mn       11.59552719282957    2.69480779567818    3.99534802937293
N         9.56610130496280   -0.15840081464755    1.74312883077148
C         9.44409754327729    1.14301383627920    1.87523260884752
O        10.70442652153558    5.31712123969351    4.95936956053848
C         8.19618863608900    1.83865153041673    1.57739191425222
N         6.48954684226573   -0.95861885694649    0.29435769111821
O        13.87111849161669    2.61889622298170    5.84339218087476
N         8.29950478171739   -2.07162982197420    0.99497102497786
C         7.31974805460725   -0.07689450854466    0.81051872643162
O         9.84421900770461    1.08754357737750    5.71407418244308
O         7.09696496584326   -2.13730486404046    0.42269463157389
N         7.18533286089322    1.24564407847178    1.00341798226034
C         8.49363127951795   -0.79449010012216    1.25476541501269
C         7.98422684774335    3.25428979126754    1.91143375644533
C         8.13765670591142    3.70984745867436    3.21905484890693
H         8.42575318651524    3.02230004816190    4.00435185502669
C         7.87396412354943    5.03307515989099    3.52342433364530
H         7.98185743820770    5.37709323513899    4.54044803344714
C         7.47216950001414    5.91075565873417    2.52957895965565
H         7.27913076885226    6.94519173495193    2.76999916680594
C         7.30492539846701    5.45743553105173    1.23083717482708
H         6.97830123168619    6.13600278282001    0.45711893578186
C         7.54343018602011    4.13105280864498    0.92322800725764
H         7.40120304406271    3.76193312908803   -0.08122512889429
C        10.68552346809094    1.83075983749148    2.20402587438658
C        11.05837937508883    3.18032776573815    1.94013163348335
H        10.42175710096103    3.94348983598008    1.51455095505809
C        12.45777755326593    3.29128749799989    2.10589787749447
H        13.05196026915032    4.14978726124316    1.82205411304089
C        12.96602196419447    2.01537094431855    2.46043163086929
H        14.01250549008572    1.75046153779277    2.52875500906015
C        11.88500089813226    1.12211072599273    2.54961991916045
H        11.94156829601530    0.04815140765079    2.65316683156580
C        11.04036848710511    4.27844259414335    4.60626552079374
C        12.95890751124723    2.65927805714068    5.15136852760724
C        10.53670367278491    1.74151588144465    5.07601938609102

