49
CSD_code = KEKWIJ | q = 0 | S = 0 | Stoichiometry = C25H18AuBrIN2P | MND = 2
Au        2.28442857610634   13.30388821385845    3.32390662760176
I        -2.39693096361101    9.69174894255471    1.25836516562588
Br        1.45101415979013    6.57338833778968    5.41780022080134
P         3.91728559400286   14.65304707561360    4.02985435149376
N         0.91925648232244   11.88346045020594    2.86579733967885
C        -0.19026533370975   11.71557815183720    2.09860540939396
H        -0.56258390608124   12.52054756838928    1.49285908368263
C        -0.69869475973860   10.44898063156050    2.22795621325257
C         0.12987343132747    9.75175650744373    3.13335240594272
C         0.20003717607705    8.48600873362011    3.69946796832650
H        -0.52000201732795    7.71367363382238    3.47074527445283
C         1.24782156760485    8.27422944364030    4.57417492336179
C         2.17721735424167    9.27462110500928    4.86878302799218
H         2.98915771903059    9.08295379350238    5.55690388763393
C         1.12769527767191   10.70761289479958    3.49766817859708
N         2.12771273676985   10.48204692188621    4.34272984818898
C         3.40853452796055   16.27195249856701    4.67380325561396
C         2.23677632172830   16.29793245658405    5.42530499667976
H         1.67761915249840   15.38032220985269    5.56109410730664
C         1.79849426620380   17.48363870325784    5.98325274552914
H         0.89027640682453   17.50255713486464    6.56665831513486
C         2.52459975319879   18.64822761191132    5.78762380046552
H         2.18094393748565   19.57624282648704    6.21914167261432
C         3.68797811482551   18.62556220083069    5.03588717446128
H         4.25051575720216   19.53471208035778    4.88282859137552
C         4.13553244898147   17.44108568538438    4.47789664818041
H         5.04103187130490   17.42543232231503    3.88672704304144
C         5.17054931877403   15.04661481515739    2.78252963303765
C         4.73313216153722   15.75500886912593    1.66381490834692
H         3.69970692885479   16.07555964170575    1.61304455292831
C         5.61442070665383   16.04380199808812    0.64089166333267
H         5.27734829022206   16.59812722956435   -0.22223848951066
C         6.93088740888306   15.61378508049965    0.72172123491966
H         7.61943074215247   15.83649144122503   -0.07941789178122
C         7.36158367835101   14.89242807873661    1.82243338434269
H         8.38445621656037   14.55068729795551    1.87817700195889
C         6.48481985641409   14.60152578287330    2.85386228747479
H         6.81839560476332   14.03228103967074    3.71021110164421
C         4.83353972675589   13.93634075696883    5.41910054985626
C         5.72418631277820   14.70888180355606    6.16170865230520
H         5.86952027107929   15.75166365436582    5.91234364988923
C         6.41285536409880   14.13649576786656    7.21384163058284
H         7.10376538645002   14.73248697245223    7.79169090076244
C         6.21489848864737   12.80023853378465    7.52910875709009
H         6.75371294395234   12.35818059427836    8.35384397548625
C         5.32501848668644   12.03476207496223    6.79407523563541
H         5.16841162370657   10.99666029533522    7.04500368892277
C         4.62843408873972   12.59772613628462    5.73835293941521
H         3.92210074123266   12.00614399969752    5.16781235696846

