71
CSD_code = KELBAE | q = 0 | S = 0 | Stoichiometry = C24H40N4NiP2 | MND = 4
Ni        1.98425653182852   15.05936803018494    0.00268555006320
P         0.76380458849089   14.70094456160550    1.84641261517629
C         1.83462042707857   15.05467132181355    3.31455460630937
C         2.57701514438169   16.37487499471396    3.15481500682941
C        -0.12459243453922   13.23016868656569    2.54042656030464
C        -1.21224837503061   12.69219598204322    1.62204384900587
C        -0.52721143059152   16.03083309823926    1.95878950280402
C        -1.28632383621453   16.18888237187875    3.26863236559684
P         0.74164724794272   15.39999479948189   -1.82979642072204
C        -0.53119504003353   14.05175169112894   -1.92839716768566
C        -1.29818775335343   13.88016643527488   -3.23188031984290
C        -0.17399973600413   16.85735175888345   -2.51687525796932
C        -1.26271398162806   17.38012894062282   -1.59096331905619
C         1.80474578390613   15.06153739785124   -3.30707376256274
C         2.56877342461776   13.75318705123180   -3.15236174991561
N         3.52088474269648   16.26771124464252   -0.38723240959332
C         2.43001740081972   18.29746572644319   -0.98299857301285
C         2.36828612466881   19.47128249682444   -1.70441035322518
C         3.39122570446168   19.80442695462029   -2.57959901786361
C         4.47877145968391   18.95498626874894   -2.72419737710716
C         4.54614320598012   17.77327673663309   -2.01632148032334
C         3.51269368509124   17.42465054738676   -1.13848182902201
N         4.67418024616014   15.63107150934633   -0.29956044987736
N         4.68610054663202   14.53795077558600    0.28937637716604
N         3.54530123744546   13.87998228535887    0.38419242141837
C         4.61131903437805   12.39200333852875    2.00340019400498
C         4.57044122571498   11.20960451960171    2.71214335077184
C         3.49534667208883   10.34259934753249    2.57913071527013
C         2.45824298851196   10.65881320258207    1.71440215184825
C         2.49369315738332   11.83300186357968    0.99181037057351
C         3.56344896140282   12.72354816140625    1.13597053600795
H         2.55422536015137   14.23164946872227    3.36741818979146
H         1.24145071910170   15.04010585968103    4.23255153685367
H         3.37091795111017   16.46655976581317    3.89319234940593
H         3.02424340396258   16.42651605186309    2.15857956090695
H         1.90333790163766   17.22188344069498    3.26868553119318
H        -0.54360970500871   13.50319760334377    3.51148738011986
H         0.63225430890637   12.45999809727869    2.70883305756604
H        -1.67873027945534   11.81102893656152    2.05977316302382
H        -1.98711878487709   13.43811396537991    1.45400923006270
H        -0.79137976738393   12.41110853421500    0.65932805289882
H        -1.23128432227125   15.84563471740575    1.14198032392877
H        -0.00417415752060   16.96229676263611    1.71962420504937
H        -1.96046026048742   17.04151423497811    3.19709344377564
H        -1.88551293928849   15.30912455190244    3.48992565065813
H        -0.60953006237872   16.36743337950470    4.10039364468628
H        -1.23136938772605   14.22901435785578   -1.10647185394880
H         0.00713694945580   13.12854888636566   -1.69131168113931
H        -1.95564843152856   13.01512551273397   -3.15443045859251
H        -1.91548096901941   14.74869708121729   -3.44798786748039
H        -0.62541417783024   13.71390565423865   -4.06944015783754
H        -0.59631364344661   16.57701414400310   -3.48443349654391
H         0.56996830196647   17.63857197515661   -2.69182168862706
H        -1.74513350542386   18.25388104037124   -2.02627468039414
H        -2.02545992304006   16.62323253123959   -1.41668754628164
H        -0.83919572786133   17.66850008960491   -0.63157838051955
H         2.51077854036146   15.89573239895628   -3.36789530882984
H         1.20273735732629   15.06541482969552   -4.21938402619498
H         3.35842896586047   13.67354854279759   -3.89667072644327
H         3.02425269057711   13.70928769976978   -2.15939249656330
H         1.90753414855664   12.89569455561653   -3.26071948641002
H         1.65401694530774   18.02590276597053   -0.27709913714989
H         1.52637957926161   20.13813152964834   -1.57934537408747
H         3.34496064148004   20.72598734760425   -3.14094280110591
H         5.27803420464208   19.21836580416370   -3.40227778296978
H         5.38798442845078   17.10545322610495   -2.11867473214247
H         5.44318727099242   13.07342196811562    2.09723564338979
H         5.38077981156631   10.95955636105973    3.38209787531101
H         3.46981490647459    9.42065348877673    3.14116512748377
H         1.62606373475916    9.97830660824846    1.59806386078098
H         1.70644096866736   12.09125413035343    0.29336517102857

