43
CSD_code = KELDEK | q = 0 | S = 0 | Stoichiometry = C13H26IrPS2 | MND = 8
Ir        1.18435823088500    0.49702250274982    3.15439818161862
S         3.35694220085662   -0.50951924369622    3.63764813842101
S         0.95624639990379   -0.57855636266865    0.97556860727683
P         2.37135693217202    2.01629659166735    1.93761447708436
C        -0.20537262682280    1.80220191704519    4.43055750450163
C        -0.95946758488087    0.99320049351327    3.52997125555010
C        -0.74519873597190   -0.38832860364581    3.88541188687824
C         0.19380809970485   -0.42801183481330    4.93800485223066
C         0.56046564938958    0.93217518702643    5.25852469332481
C        -0.32282310309417    3.28463537400932    4.58558387091867
C        -2.02013881567738    1.46177466154540    2.58692292847312
C        -1.52183881556880   -1.52441998385512    3.30513769659280
C         0.63062644790876   -1.61993001365493    5.72776014835805
C         1.36229540926852    1.33126542136922    6.45681200879974
C         1.35174935965207    3.01203729227391    0.79204812981119
C         3.23896243073759    3.31217834884203    2.90213299479690
C         3.70517045030172    1.44580626456229    0.82949858314489
H        -1.19042827125523    3.51580829640925    5.20708313100604
H         0.55666618233988    3.70275662007404    5.07077467485465
H        -0.45964653482352    3.77873795494647    3.62522467887397
H        -3.00154802277019    1.37278938604931    3.05781148693369
H        -1.86919050181753    2.50181407937249    2.30660384139214
H        -2.02362279632561    0.85632481284504    1.68258702028636
H        -2.57416453478244   -1.42745072049786    3.57759199419936
H        -1.45168933681409   -1.52470679745169    2.21769593491955
H        -1.15391921787594   -2.48061432892996    3.66798367313767
H         0.25656637566414   -1.54500216342093    6.75025639261901
H         0.25615903605477   -2.53987033963329    5.28650837988427
H         1.71798868375959   -1.68566451469552    5.76674312412079
H         0.70827794296911    1.42025332696556    7.32710707801723
H         2.12051792730682    0.58383034325463    6.68138323619563
H         1.85597198678680    2.29014869279992    6.30610367027374
H         1.97699278655755    3.70116501307834    0.22666356549828
H         0.84461333879818    2.32955897160711    0.11299657744293
H         0.60745220646382    3.57102668700990    1.35359732915913
H         3.71596123700116    4.02528017967171    2.23170902394049
H         2.52818917474225    3.83286240311129    3.53884984833132
H         3.99504979715254    2.83866543426644    3.52490339459498
H         4.19046665172466    2.30523890527209    0.36844963464735
H         4.42566319106734    0.86944212617358    1.40667540390442
H         3.27151087522824    0.80400095026231    0.06529704861836
H         3.68888834435566    0.33863074064707    4.60070207331368
H         1.89413154975316   -1.49645407147168    1.13620182606913

