34
CSD_code = KELHAL | q = 0 | S = 0 | Stoichiometry = C16H12IMnO4 | MND = 8
Mn        1.59321040423367    2.46144920935403   12.28104557764146
I         5.38981413849335    1.72474600786034   11.31962860716813
C         2.22092417053638    1.92476019932318   14.31946393882483
C         3.22785882360881    1.44649269954042   13.46095204963967
C         3.73946894502005    2.35275874619376   12.48911589206251
C         3.34472879196940    3.71314926014194   12.52482108203633
C         2.44918597836676    4.14314924426883   13.49464022878677
C         2.37149078936173    3.36729922265125   14.79031689153519
C         3.57343622020748    3.49819259234208   15.71068747697193
C         3.44889646341920    3.03606385655733   17.01737800523958
C         4.52744108040266    3.05874311974822   17.88125248101706
C         5.75038346066155    3.54606207039164   17.45069757303399
C         5.88213244495869    4.01467323588411   16.15603695554335
C         4.80142315030181    3.98971332452771   15.29051143449440
C         3.12105558678936   -0.81921454428811   14.18392725976170
C        -0.02501557091938    2.86606977461622   12.92867628108366
C         1.35661626207612    3.16967363491753   10.65082105186834
C         1.18598383796902    0.84572104632254   11.62571409442006
O         3.70287836206430    0.18947626880775   13.38855863847376
O        -1.03165819172428    3.13850468047909   13.40642116412181
O         1.23453220635800    3.62903427849552    9.60696698273299
O         0.96716863570647   -0.20671136960313   11.22147296008762
H         1.81251546820466    1.22997054083020   15.04900346814049
H         3.72189898792306    4.39290385193581   11.76267369163389
H         2.17991124972284    5.19502909180945   13.52027049326280
H         1.47724622598657    3.65888527609873   15.35194898581824
H         2.49465626494513    2.65779994037128   17.35830818659347
H         4.41303569142941    2.69579070362879   18.89200886245615
H         6.59501943049770    3.56310881004317   18.12283683965787
H         6.83021472013172    4.40154978309133   15.81266938387450
H         4.92531999743168    4.36998009852613   14.28611339914095
H         2.06698613953446   -0.96338479273407   13.92616007784176
H         3.67890475868925   -1.72527336301951   13.95610998335623
H         3.21463507564271   -0.58916649911399   15.24979000167851

