99
CSD_code = KELJOA | q = 0 | S = 0 | Stoichiometry = C37H55N2ScSi4 | MND = 12
Sc        1.21428527357040    0.14185583927400    4.28314285219222
Si        5.00171615898327    1.06994178349771    1.77259646963221
Si        7.16031037311642    2.02280763620671    2.12894950070545
Si        4.79921717385627   -0.20298591638653   -0.25743290632615
Si        5.54893232540484   -1.04873477008490    4.77003747856029
N         2.98347552975605   -0.07615645170350    5.29701340105260
N         2.51421121669961    1.14875478991339    2.84800350805148
C         3.98751726707816   -0.00573696248353    4.37686677109128
C         3.78137756892052    0.64751189825490    3.17524576616845
C         2.50209762500216    2.02405711549288    1.85958552064921
C         1.35363220712382    2.36888100527616    1.07481444399666
C         1.53364559859679    2.99460417184683   -0.12355444420984
C         2.81201095640864    3.37669993122690   -0.61881635801123
C         3.89674381035016    3.22885613260049    0.15800587814261
C         3.82178574773700    2.62703341402745    1.49306604209399
C        -0.04328145431366    2.02964596105869    1.49687820767523
C         4.16199436973355    3.69958076604252    2.54491341526189
C         3.21546575265503   -0.87203724081372    8.91295807935452
C         4.07285815900039    0.11913225013195    9.35285213101086
C         4.50182691520341    1.07896965820494    8.45598213646778
C         4.12785470365170    1.03491314528763    7.12279692341929
C         3.32173112988384   -0.02448394259947    6.65070525582820
C         2.82662617957580   -0.95651256348483    7.58526026847033
C         1.88671110824670   -2.05409585661792    7.18455798593249
C         4.51089746114144    2.17761732049853    6.22673904772110
C         7.54249626693336    3.08606246399435    3.69025052437877
C         7.59406825729105    3.20298129585373    0.67659872703867
C         8.46727960106085    0.63346508370057    2.02162891156843
C         3.03772636364204   -0.29950458091526   -0.99918213184610
C         5.88867976405726    0.66653150188378   -1.57516733616286
C         5.44918341877514   -2.00451323173654   -0.21757871972657
C         7.03350569104158   -0.13110486775039    5.55109113266519
C         6.11867133034971   -1.91731499811824    3.17052850209748
C         5.18610428569519   -2.50743403124914    5.95165491219223
C         0.21551546258299    0.85620266943469    6.56328723687648
C        -0.84345642984552    0.47124713820225    5.72186901454689
C        -0.89706581537813    1.37915079346967    4.64430228937926
C         0.14104406782989    2.32435534215604    4.82209941637372
C         0.81937292860602    1.99973646388428    6.01007631536435
C         0.78146177360170   -1.22919474488622    1.92106511530872
C         1.94079777061845   -1.84717830527255    2.41082127950386
C         1.65761448210250   -2.36836784392642    3.67763781855957
C         0.30651084225000   -2.07513664224686    3.98737854036806
C        -0.23296986474832   -1.36079803541511    2.88800926762598
H         0.66885787983087    3.20614087192372   -0.73672267276924
H         2.87633617976870    3.81221654467800   -1.60508362736846
H         4.86365872366274    3.58937635175597   -0.15813795123196
H        -0.64671296120949    1.76807101784008    0.62908885012710
H        -0.04133409744261    1.19479271286035    2.20059504582636
H        -0.50705435079933    2.89393138844335    1.97480056602448
H         3.40799954421256    4.48716367186276    2.51895486266302
H         4.17651887395197    3.27428592940961    3.54422471320610
H         5.12899498831330    4.14888712152897    2.33799052918709
H         2.83839714530335   -1.60334248058775    9.61434161116099
H         4.37614877866276    0.16127413552549   10.38798392570152
H         5.12541633654223    1.89271333307183    8.79962568757566
H         1.24879794735104   -2.32682097469588    8.02381267442202
H         1.26342971474773   -1.73241781275713    6.34712495051562
H         2.43751833547452   -2.94487647392244    6.88331200101289
H         3.68634751961607    2.41483795191589    5.55415037514536
H         4.73798622389899    3.05728221948379    6.82698854932770
H         5.38254606007190    1.93833760467753    5.62292523094717
H         8.43791237062159    2.73870297800570    4.19872168048079
H         7.71010025176746    4.12599404521775    3.42176221844367
H         6.73214555942406    3.07339481481105    4.41106748607864
H         8.64346985748590    3.48490555105480    0.71464723194420
H         7.42267918062488    2.73722347725131   -0.28730689160458
H         7.01790449818278    4.12331756596067    0.70336194176452
H         9.46803408016309    1.05113953722902    1.95986995695134
H         8.44357531756527   -0.02666987122999    2.88097200386199
H         8.31906975513487    0.02438763236601    1.13493991434869
H         3.05957565210156   -0.66475420994964   -2.02328590249579
H         2.41112495019469   -0.97391240632563   -0.42604087915823
H         2.55484955855175    0.67239630493306   -1.00753591818214
H         5.81348403111556    0.15995501328042   -2.53292904671292
H         5.58892509836684    1.69721252733805   -1.73199218636594
H         6.93655094741131    0.66095378474851   -1.29201363872284
H         5.41572866205689   -2.43619131985046   -1.21441184266662
H         6.47764440876330   -2.06207359635543    0.12353285565179
H         4.85346473131075   -2.64148251995012    0.42712943137301
H         7.87836607164749   -0.81112044427764    5.60507155358617
H         7.34957960399497    0.73318638967105    4.98045046211605
H         6.81520455521756    0.19033935575540    6.56462094473314
H         6.94628421969557   -2.58437445262630    3.38882831164639
H         5.31813910617287   -2.52080857469519    2.75867665788425
H         6.44365094252618   -1.22901995506998    2.40275485788654
H         6.03472839964524   -3.18677185253125    5.96096810548992
H         5.01148551023239   -2.18874094329278    6.97364914260549
H         4.32302677076027   -3.07768391513540    5.62405585429705
H         0.43539886287936    0.44643949968039    7.53750194502260
H        -1.58625284247184   -0.28290053195088    5.94493575013352
H        -1.71427152506378    1.45800252368854    3.93890371989464
H         0.28039031984423    3.23523595320976    4.25520558305375
H         1.57032450271331    2.60318695272471    6.49612389607941
H         0.65500398345504   -0.81386365399907    0.93320348595013
H         2.87553489941104   -1.94635612822267    1.88201361313126
H         2.31372199487644   -3.00644720303073    4.25061790705519
H        -0.27959586664489   -2.54732907878424    4.76694748708859
H        -1.28489461550912   -1.15393094835741    2.73206879483125

