82
CSD_code = KELKIW | q = 0 | S = 0 | Stoichiometry = C42H31AgBr4O2P2 | MND = 4
Ag       10.14189707949478    1.75182450012770    1.63633932510236
Br        8.61408892413565   -0.32755761882947    2.69823127216489
Br        8.74521987116915   -2.84288652558976    4.78728226227514
Br       11.47153303456098   -4.65307871659329    5.01735148036509
Br       14.06436764279998   -3.93961560975893    3.08861029499430
P        11.98275658085949    2.10075949379331    3.53798142288436
P         9.28791101002128    3.99153525806915    1.04792629886040
O        13.43207407429337   -1.60909535627924    1.23279727390253
H        13.11015417832294   -0.85585473001700    0.69973350443582
O        11.27001800554284   -0.14640241910812    1.07028648071008
C        12.11304053513228    3.57218097741402    4.61652833197417
C        12.02293207238463    3.55155233693889    6.00154939273347
H        11.88460207279376    2.61681987062079    6.52547311385039
C        12.12080332496721    4.73250317821545    6.71721010949558
H        12.05403995311983    4.70937143786065    7.79515876206812
C        12.30959790492149    5.93588110947418    6.06059712961573
H        12.38825392150074    6.85337293093413    6.62444522121403
C        12.39833531386470    5.96108924485785    4.67763034072571
H        12.54659861833147    6.89723239229438    4.15973966409327
C        12.29376241763299    4.78707553843474    3.95991528499351
H        12.35308491752536    4.80143894707695    2.87864481843702
C        13.69412543683203    2.04631579747001    2.91237383358801
C        13.91216171807634    1.73973839225476    1.57437784887131
H        13.06015771952604    1.55168909846289    0.92929664353347
C        15.20177143326411    1.66428006823531    1.07792580923151
H        15.36778957810179    1.41554429191133    0.04015764282220
C        16.27813841434534    1.90321934591712    1.91537260076671
H        17.28525363788503    1.83939833037850    1.53135671046995
C        16.06521037522446    2.22186345460262    3.24806919898783
H        16.90614926002599    2.40831998551967    3.89975103607759
C        14.77941910259923    2.29532449277452    3.74929867068819
H        14.61034807675455    2.54067078342509    4.78899714021690
C        11.94546681611298    0.72815352156821    4.73378116288253
C        12.96562800752202   -0.20531681678914    4.87339870012400
H        13.86019663742642   -0.13093279004302    4.27152808932646
C        12.83159328257880   -1.24028333312741    5.78403399964491
H        13.62776144244300   -1.96268395291844    5.89124953438785
C        11.68335417500720   -1.35736135583763    6.54939377470316
H        11.58186521911529   -2.17146725908938    7.25110851075310
C        10.65195485549255   -0.44305373857612    6.39540973365336
H         9.74604617414309   -0.54579933478157    6.97422028065350
C        10.77861002939959    0.58946185634992    5.48635829654317
H         9.97171300611538    1.30049489707443    5.34891888402436
C         7.67695598438704    4.33052537722102    0.27468185151988
C         6.60051468501227    4.87792194230073    0.96214867089474
H         6.70614044628939    5.15665801211657    2.00109318807679
C         5.39451874200260    5.06568990277782    0.30886066277656
H         4.55907292264225    5.49381173450751    0.84279988272402
C         5.25589070408259    4.70603721985330   -1.02109280997953
H         4.31254138981677    4.85472824943595   -1.52464637723482
C         6.32512154180587    4.14743047616693   -1.70549002845557
H         6.21484136579785    3.85944207727556   -2.74036397500646
C         7.52929336373092    3.95209951399903   -1.05878680790971
H         8.36937381400772    3.50775721215761   -1.57851034809066
C        10.40334560930737    5.07628231418009    0.10308222050041
C         9.97098897868049    6.21626955411264   -0.56804058659389
H         8.92139811972503    6.47659687392154   -0.57080806769631
C        10.88640838464271    7.00657883644719   -1.24006462493946
H        10.54907186461773    7.88965314083199   -1.76255067349335
C        12.23073399035922    6.66993410168404   -1.24531725218498
H        12.93945401902770    7.29167433897690   -1.77142419912279
C        12.66454042293733    5.53157776301183   -0.58450167049887
H        13.71028165101336    5.26214643462825   -0.59360655607565
C        11.75210262409455    4.73508810632319    0.08146535734270
H        12.07278708645032    3.82918206227232    0.58787876863057
C         9.15790070513202    4.85554518270662    2.64837590209799
C         9.38714911087698    6.21723777287188    2.80609295571517
H         9.65270846090013    6.82425446235510    1.95242376597774
C         9.28282782141612    6.79158928083378    4.06031800824466
H         9.46125811483316    7.84995641843858    4.18041017893410
C         8.95432650123221    6.01659577703817    5.16008002437229
H         8.88162318543280    6.46952695257399    6.13719328477490
C         8.72044118470617    4.65980636952644    5.00735321782392
H         8.46065680620079    4.05546061005643    5.86351633023177
C         8.82312453129012    4.08179027039230    3.75648832403752
H         8.63062438312613    3.02100984638381    3.62299138837622
C        12.39230951025666   -1.92775719054103    2.03460914177708
C        11.22761569209267   -1.10520212345908    1.91557207172039
C        10.15968595204237   -1.42606170628100    2.76280685456405
C        10.21903365776272   -2.48055396173112    3.66559421596443
C        11.36160686513287   -3.25140181584411    3.76163303445073
C        12.45324395933728   -2.95760336724952    2.93822478622172

