29
CSD_code = KELKAN | q = -1 | S = 0 | Stoichiometry = C3H12B10CoO3(1-) | MND = 7
Co        2.59883894039293    1.25802009965663    0.53936873430693
C         1.20107532833578    1.26216785521739    1.60214217102007
O         0.31027094461696    1.28428828548970    2.34968900894452
C         2.64096269775555   -0.43632736086658    0.08885809659403
O         2.71220099230234   -1.56379860165431   -0.18827140855520
C         4.09899349948798    1.75188468642578    1.37575053402827
O         5.06158906758034    1.98720086936002    1.99570704332820
B         1.58401381846606    3.01326712648166   -2.33352403299742
B         2.12866940677106    1.46134467431537   -1.69066949639648
B         1.20680183447882    2.62228999652695   -0.65282125873433
B         1.73285706296824    4.27195440706228   -1.07223315838011
B         2.96764614214283    4.11294533258279   -2.33328890403075
B         3.21456069666341    2.40619013661703   -2.74109808914277
B         2.22978661460473    3.50924728161741    0.46254838245356
B         3.48054530246998    4.47519384400162   -0.69844443404720
B         4.40515603195288    3.30896106665664   -1.73706954676743
B         3.85128095324393    1.46834889891070   -1.36577250343424
H         0.71781059299285    3.05089725145515   -3.14348773575930
H         1.61762682508099    0.48514782073840   -2.14001551629326
H         0.05820846213525    2.45216894123233   -0.39219753722384
H         0.96894796855246    5.17913178380362   -1.02236646049686
H         3.11697664507221    4.96151547963900   -3.15001910090489
H         3.47108136879442    2.03265532531879   -3.83826598827176
H         1.87696382669813    4.00260065598969    1.48419795435093
H         3.91141483777634    5.53841790312280   -0.38350765192059
H         5.49328440310399    3.54428790424830   -2.15624221428931
H         4.60543703352131    0.57660308085136   -1.58387055023468
H         3.51254767404651    3.76229168383066    0.38154089837142
H         4.57895102799160    2.41000357136934   -0.81983723551771

