35
CSD_code = KELLIY | q = 0 | S = 0 | Stoichiometry = C8H16Cl2N2O6Pt | MND = 6
Pt        0.32027205178322    3.03880258235408    1.93109329077586
Cl       -1.62932640747166    2.40975114993463    0.74708467049736
Cl        2.29460697944022    3.43163316970658    3.17355478006074
O        -0.58373382066096    4.58426923397568    2.84675721221603
N        -0.42871202437095    2.04681368967832    3.60329173964336
H        -0.68604445191235    1.06955368012888    3.45147216384837
H         0.26148808157125    2.08843420970901    4.37682082171431
C        -1.35983253019711    4.32117361724092    3.82915383965660
C        -1.59919549028171    2.79445912089509    4.09404647595101
H        -2.49769198463907    2.49958863577296    3.54438488725677
O        -1.88520416165390    5.14315490312437    4.53924300607169
O        -0.48915291076538    2.73636348134128    6.21491056090694
H        -0.31349672458871    3.67988050127384    6.30746231441446
C        -1.75574168187917    2.55757128338950    5.61383570064253
H        -2.47591144474043    3.29483226487234    5.98904075163035
C        -2.24237666658202    1.14832993752227    5.93137692907279
H        -2.40494896041983    1.05837190623107    7.00117292827981
H        -1.49650651125809    0.41072851976492    5.64547271690399
H        -3.17583982704792    0.94524402440597    5.41544029075818
O         0.96668185131272    4.08254074538079    0.33874175756665
N         1.31802114435762    1.51661101209426    0.91684770459062
H         1.74923641638752    0.80729627148725    1.51281863625593
H         0.66652954103559    1.04439539261139    0.26140135337191
C         1.81789996852975    3.52207507959454   -0.43451622217346
O         2.21270644314248    3.97778510323309   -1.47964396832264
C         2.34513754635224    2.12976680527467    0.05728375100093
H         3.26302391404655    2.30589040956543    0.62538452960485
O         1.34014959990658    0.84268582535542   -1.69411693959241
H         0.98713305757257    1.57049772376596   -2.21880495885577
C         2.59634847283911    1.21764455046588   -1.16579881381514
H         3.17220042462508    1.79846382485367   -1.89656747258281
C         3.35731007664139   -0.04980338450575   -0.79442694561707
H         3.56490429739676   -0.61924645580363   -1.69534363692915
H         2.76201818024132   -0.67641998205663   -0.13476282125109
H         4.29724755128881    0.20106116736301   -0.31241103355277

