56
CSD_code = KELPOH | q = 0 | S = 0 | Stoichiometry = C25H22Cl3NO2P2Ru | MND = 6
C         2.40399417055014    2.45343106236316    4.05767849720685
H         2.06849239089893    3.24508983691474    4.73278144344084
H         2.60931067369046    2.86810592893956    3.06626966830166
C        -0.08724653524521    1.34388675227910    5.18006915898368
C        -0.21176456423637    0.42938463872746    6.21778820816959
H         0.45834421157431   -0.41805097088414    6.25473628773304
C        -1.17737920517836    0.62281619415917    7.18938262747065
H        -1.27524443309072   -0.08445833725311    7.99908207181485
C        -2.01653466064572    1.72323166486743    7.11985855691440
H        -2.77116569386075    1.87446455471394    7.87727384247820
C        -1.89564907323913    2.63149318310747    6.07873055661844
H        -2.55499916491394    3.48515836252933    6.02622270909615
C        -0.93234899939241    2.44359103820705    5.10472285223756
H        -0.83513636613475    3.14277694192693    4.28612793816231
C         0.32352439064907    1.02103945058927    2.34131366594710
C         0.00369985488130   -0.23970334821855    1.85223533148990
H         0.33401786037472   -1.11773681728736    2.39294539546795
C        -0.05319109298037    2.16686481599850    1.65634334920549
H         0.21445244093717    3.14355788105342    2.03429018960237
C        -0.74929612707320    2.04378906416439    0.46759839819332
H        -1.03740540586888    2.92955895773101   -0.07913708293481
C        -1.06672499056834    0.78894652455471   -0.02752639898063
H        -1.60254563581029    0.70131555746118   -0.96090664806170
C        -0.68911190470468   -0.35258607498580    0.66175517855327
H        -0.92548547206055   -1.32920181488190    0.26755825432823
C         5.24711698487704    2.84105831227511    4.22874883420323
C         5.82258479944095    2.76176764232742    2.96319564290235
H         5.49076452984707    1.99753425601424    2.27082997984851
C         6.80460346281901    3.66421153097765    2.59814665056612
H         7.25273177988904    3.60149172789844    1.61833798923133
C         5.65850635494809    3.82275122499475    5.12471991563267
H         5.21398828658025    3.87559520996767    6.10872784739111
C         6.64340419493251    4.71899124368207    4.75121546317409
H         6.96651496301912    5.47941709052023    5.44648999515107
C         7.21697441901154    4.63987479213059    3.49203372109546
H         7.98960230586923    5.33866099216162    3.20864102681473
C         3.87242528273950    1.64352655524898    6.45974969957135
C         5.02638004165999    1.19536681504102    7.10573388157758
H         5.89456648835816    0.93564278662982    6.51256648918367
C         5.04367241235325    1.07039594415078    8.47960804675799
H         5.93410568040142    0.71859302828331    8.97741743979078
C         3.90805323847260    1.37528406307362    9.21587620885757
H         3.91633812483308    1.26432219223018   10.28977918458211
C         2.75906236316206    1.80734481351712    8.57640449347864
H         1.87070852225732    2.03386938855874    9.14773424813171
C         2.73441958610251    1.94109998225262    7.19849730032168
H         1.82457668911058    2.26545932843999    6.71296867796544
Cl        4.17496060943074   -1.53731119352326    5.74807694867631
Cl        3.23246325252354   -2.50382954755470    2.78780439719932
Cl        3.21859156677318    0.62792192293465    1.70653532438130
N         5.55170173260213   -0.61541107704373    3.26090590565983
O         1.86721345069626   -0.23637944563307    4.27625389791973
O         6.67187165185279   -0.69481966267269    2.99676788432672
P         1.18899502773421    1.04563768983930    3.92754437082693
P         3.95532295681996    1.64907616433693    4.65923775914747
Ru        3.94557257237178   -0.50020881786667    3.67205672419893

