29
CSD_code = KELQUN | q = 0 | S = 0 | Stoichiometry = C7H19ClOTi | MND = 5
Ti        1.02258883121960    5.87651383428422    2.98787997754162
Cl        2.75086849478153    4.58304163067336    3.45312747079687
C        -0.41221256963788    4.39983287943478    2.68495097224139
H        -0.73852305859298    4.29449318568911    1.63950947239302
H         0.02771150943698    3.43677558097331    2.98348581756605
H        -1.30808951825952    4.55219242522717    3.30715897530293
C         1.93419506669586    6.76758934285522    1.33753128870101
H         1.26717422715090    7.15994552420549    0.55959355762550
H         2.58700414268951    6.02099911668443    0.85950786748827
H         2.58162037162772    7.59318808880982    1.67917480083039
C         0.93556462287988    6.76754773547330    4.87226416954455
H         1.08103664357342    5.95991284565018    5.60624708048453
H         1.76891763894958    7.47715160946848    5.00417383860182
H         0.00088461299998    7.28360216466224    5.13115101959102
O        -0.69069612191925    7.59705937841752    2.52265579460352
C        -0.37432787874717    8.97080098093850    2.73118098297422
H        -1.11786510977112    9.41273008186614    3.41267473499756
H         0.60191758557321    8.95491302336929    3.22816669235837
C        -1.99323138424602    7.35812126566334    1.98817477533118
H        -2.39642055083563    6.50049862615104    2.53894396870650
H        -2.63765388196885    8.22518007568833    2.17763072743491
C        -1.95897093863796    7.02625125094209    0.49880846430619
H        -1.23087599310343    6.23368248268444    0.32738488132626
H        -1.67896873917969    7.89058557268760   -0.09677309991532
H        -2.93900455052739    6.68431141808757    0.17637152853011
C        -0.28333384629851    9.80998749101669    1.45965920251182
H         0.08709872088133   10.79962665499511    1.71365644524719
H        -1.25476900603602    9.92347113516636    0.98479049975444
H         0.40736067929822    9.35089459823727    0.75741809311942

