31
CSD_code = KELRID | q = 0 | S = 0 | Stoichiometry = C11H14I2N2OPd | MND = 4
Pd        8.98455680529012    7.44855886031177    3.96484682148383
I        11.34592634459142    7.99382438352215    4.78296756030162
I         8.88343941919369    9.56568073063953    2.54559745890965
N         7.32851157581414    6.50765133422707    3.05896153432049
C         6.75312585074080    6.74570178881360    1.88343541051854
H         7.07004440232584    7.63634329144497    1.35401057461414
C         5.77924014258893    5.91751185144729    1.35067517367946
H         5.34478924872494    6.15719138684550    0.39382137768143
C         5.37229160906683    4.79562364792097    2.06235853082754
H         4.61041567530460    4.13920833601481    1.67200233539098
C         5.96716576226447    4.53675118230712    3.28291036514921
H         5.70195414233131    3.68272550057646    3.88520643382856
C         6.94777175260157    5.41007049723706    3.74390358614241
C         7.63544168901614    5.22653325121241    5.00464299653690
N         8.68203038746268    5.90782785820547    5.30165421722038
C         9.05787045090440    5.62559096264284    6.67360708420555
H        10.07941027201045    5.22664164832341    6.68927832697968
C         9.03385133116684    6.91791573698596    7.52853635871632
H         9.93152961545806    7.48357365551179    7.26036823554185
C         9.12314761504673    6.59613624881439    9.01733530325096
H         9.93632490049997    5.90056872337485    9.20941373713941
H         8.19963749880021    6.16748012924467    9.39992385276411
H         9.32053436539241    7.51022322706194    9.57075291548174
C         7.82041958892854    7.79362805538492    7.20940519982543
H         7.89108127034191    8.20615012768844    6.18344600260320
H         7.78806622007838    8.63731975808028    7.89379895822433
H         6.88547107520108    7.24037084611230    7.30250386130018
C         8.02425841577692    4.54268965607879    7.07734531338334
H         8.48872417251542    3.58272503498247    7.31210820259580
H         7.38845381074607    4.84765624899825    7.91083013819428
O         7.18641458980752    4.37102603998362    5.93045213319143

