81
CSD_code = KELSUP | q = 1 | S = 0 | Stoichiometry = C24H49ClO6Y(1+) | MND = 7
Y         2.41977195771265    0.11025488216104   27.72863780654317
Cl        2.75653256405044    0.28788105125596   25.35084309664566
O         2.50030148576094   -0.38974582215134   29.55105390714147
O        -0.03201128914120    0.45982643812494   27.30595905197420
O         1.96471272436266    2.62445579616179   27.52614880788548
O         1.42814064288805   -2.07719121967054   27.10664649013101
O         4.26791819262676   -1.54279488405080   27.49739117480344
O         4.54749352411969    1.35103507796650   27.93714862047665
C         1.98162388047131   -0.14036652201046   30.81718043828759
C         1.66977893514079    1.36077285237074   30.97024058258052
C         0.68391327809317   -0.94612336222004   31.02803984624604
C         3.00741737533298   -0.55963765906091   31.88761072793722
C        -0.61589377089339    0.02726159737215   26.05702016339247
C        -1.83519893264997    0.91012942383627   25.82696855405058
C        -2.32636625960273    1.11730707221602   27.25667611506297
C        -1.01280895607845    1.23127529707564   28.02651191711704
C         2.29271099060932    3.71274489070809   28.41082482444399
C         2.37070201994689    4.97569891979740   27.55743466725648
C         1.36903288786382    4.65898350409395   26.45172832262918
C         1.62883727916672    3.17465407185322   26.23265702604160
C         0.72136831392489   -2.93636825387260   28.02080118907654
C         0.50285450391860   -4.27686130981157   27.31432247913041
C         0.64678241271674   -3.90191256450691   25.84093721727216
C         1.72366736329764   -2.82938366917954   25.91712765679110
C         4.52627104453761   -2.54202703765465   28.49715246036865
C         5.95157604631602   -3.02535559233496   28.25932549427902
C         6.04233243450258   -2.93597234707188   26.73775663264869
C         5.25872356390446   -1.65763625132420   26.45647146594948
C         5.43424083962067    1.21364253044386   29.06126808385878
C         6.61520018592575    2.14384112677224   28.80261959471883
C         6.70123220098790    2.11303904297348   27.27892002563841
C         5.22762662627945    2.07763166032233   26.89205294093560
H         1.00714065783554    1.67129521392530   30.16073282978636
H         1.18781985852719    1.56265458748210   31.92305322573135
H         2.59113132194373    1.93804699619329   30.91651896437696
H         0.00525009697928   -0.76890802940223   30.19486720767726
H         0.90798439137453   -2.00876893994258   31.07196646864911
H         0.19788436935945   -0.65475478499698   31.95481626848288
H         3.22419369569110   -1.62107340582305   31.79602043439810
H         3.93433378432729   -0.00593551505411   31.75780769558965
H         2.61511733160777   -0.36550290061253   32.88145326405558
H        -0.91915421285732   -1.02222003483662   26.15880127827506
H         0.14257191086342    0.11260969806500   25.27466346984761
H        -2.57230433240591    0.43045816000104   25.18894548228265
H        -1.54766543376688    1.86092045893336   25.37681853952601
H        -2.89252388806616    0.24790737671875   27.59153718637609
H        -2.94525517923375    2.00298799555382   27.37310558180692
H        -0.67334811572016    2.27364896538382   28.06734012775496
H        -1.08966779408215    0.84316255186675   29.04652478137160
H         3.22956766201403    3.48183456639396   28.92340703744997
H         1.49443347912878    3.80559039036570   29.15829570694064
H         3.36875384201167    5.10130870917512   27.13651333381679
H         2.11567700049665    5.86661084762174   28.12535773680858
H         1.53182555732763    5.23920822904993   25.54787906198881
H         0.35019033737024    4.82844469213142   26.80261034152155
H         0.76462435895338    2.63339598492243   25.84422135166808
H         2.47056207726136    3.01843725214560   25.54810019456322
H        -0.23196485927668   -2.45177190649000   28.26130443412185
H         1.30646469272601   -3.03488548301022   28.93989161491005
H        -0.46691130446709   -4.70742288404496   27.55017834891977
H         1.27585459989254   -4.99139800062183   27.59752713186816
H        -0.28318717152920   -3.48410317831250   25.45474050355746
H         0.94140037438155   -4.74023997476188   25.21590901654994
H         2.71467653504419   -3.29196777012994   26.01175763269785
H         1.72927485253789   -2.13815205164538   25.07249308956872
H         3.81708125274466   -3.37009761170896   28.36359578315736
H         4.35920859101241   -2.08520284915425   29.47532166058454
H         6.11512638971845   -4.03031357777084   28.63915185182156
H         6.67233604624386   -2.35209556568881   28.72489088235116
H         5.55632532273993   -3.79678400040667   26.27786749349474
H         7.06421461073016   -2.87726017054178   26.37267543014639
H         5.91769541533987   -0.78262817320899   26.50700574799516
H         4.75225453253412   -1.65765872803197   25.48755634461136
H         5.76266400993187    0.16933588728411   29.12460137103723
H         4.87799719955474    1.46062484698838   29.96968657424224
H         7.52349932596406    1.79847180826419   29.28915022719345
H         6.39422775576641    3.15390810874946   29.14942700719297
H         7.21342054033458    1.21051350559128   26.94400103193747
H         7.21192189489247    2.97742412967227   26.86318468990756
H         4.81912388881697    3.09550558465291   26.85416663272910
H         5.03296866170598    1.58088024847953   25.93788054734417

