39
CSD_code = KELTAY | q = 1 | S = 0 | Stoichiometry = C9H17N2NiO10(1+) | MND = 6
Ni        1.37254556037962    1.37848778800081   11.35918357781103
O        -0.16120062219717    1.41226213350730   12.32273613709511
O         0.94407720793380    1.72461885457079   14.19846259967255
O        -1.25783745145741    1.64228779295556   18.38103969686071
O        -3.37609913301080    1.97766358407715   18.55409659547866
O        -4.93878295229885    2.44225326710190   11.90866998583638
O         0.42532788205525   -0.09824073538054    9.96258822572251
O         0.40270122790810    2.89975231073616    9.95751460471890
O         2.96816016776478    1.27771402224710   10.17620253477570
O         2.17593295467838    3.25212740560805   12.30446605813132
O         2.55452075987439    0.14205540227807   12.77270850780164
N        -2.36033017272090    1.82734066323361   17.91827845273077
N        -2.74739972318381    1.94306964184898   12.31994222534878
C        -0.12858144468060    1.62674043031540   13.59427774191992
C        -1.41889370478511    1.75082310887800   14.31862669009641
C        -1.33319595723286    1.72738756889478   15.70645176404519
C        -2.47236755152623    1.86687347373542   16.47517081754082
C        -3.71591294559313    2.04350201813529   15.87204089926090
C        -3.81177378439839    2.07419874378922   14.50054039566954
C        -2.67619986134561    1.92161578674023   13.69265368524362
C        -3.83272188491525    2.20509519741773   11.50317400454748
C        -3.46540609360906    2.12985152221552   10.04069127451256
H        -1.85224459814119    1.77556203666429   11.86535530936826
H        -0.14119266147374   -0.74202455834413   10.40056838729659
H        -0.13457342858543    0.40735115140764    9.36153850007585
H         0.21878745880458    3.65766012739636   10.52558893777074
H         1.07304887199250    3.19349788217728    9.33048167968010
H         3.74787438981212    0.97433329982316   10.65898157250004
H         2.84189171114553    0.66711677603633    9.43925990123546
H         3.12495702730153    3.40482998600704   12.27106407152878
H         1.95188925206626    3.09113603992322   13.23819781056825
H         2.36767585726789   -0.79333664963778   12.89509742718819
H         2.25873054445180    0.59675926183800   13.59146513485052
H        -0.37307179729711    1.60261503305552   16.18615492962988
H        -4.59224774940943    2.15220379569794   16.49308530598549
H        -4.76788137389728    2.21461803798266   14.02285683065480
H        -4.17446538012945    2.72062287204756    9.46790791272582
H        -3.55380741911162    1.09514207146461    9.71311723300329
H        -2.45353318478921    2.48193285747403    9.85736258124777

