83
CSD_code = KELZOT | q = 0 | S = 0 | Stoichiometry = C34H43Cl2OPRuSi | MND = 9
Ru        9.33163900567259    5.79054844484734    7.35698767666604
Cl       10.02808684463385    5.03512406682255    9.47799514883640
Cl        9.12444400196759    3.52183472170103    6.74531454191023
P        11.50282354388008    5.54371661722505    6.71369840225324
O        12.25887277623056    6.95605620430867    6.48080041612601
Si       12.88084299597037    9.57736996906527    5.06124425854103
C         7.54641638085649    6.21837032514237    5.95370286140577
C         8.53882138464320    7.18071792933858    5.71518786073319
H         8.87788637429418    7.37054464419178    4.70249954127120
C         9.03847290777938    7.97898484499572    6.77857786255807
H         9.75140038598691    8.76809497082505    6.55789607286114
C         8.53233810608768    7.85379063434341    8.08519726458217
C         7.54393233062039    6.85773296850615    8.32054496857984
H         7.11836497110368    6.75506110872387    9.31180877193662
C         7.06046744154015    6.05967834022847    7.28361648188524
H         6.26593919921806    5.34502805934684    7.47121553064874
C         6.95654012687318    5.39621756327864    4.84936725580544
H         7.31599769767181    5.72459772045423    3.87609744555121
H         5.86914302670349    5.46455791196820    4.86867881289381
H         7.22783371036010    4.34682634842661    4.98950516327917
C         8.89642777037342    8.87236983404170    9.13775195700383
H         9.87903756140013    9.28411937128546    8.88316226782604
C         8.96726762625277    8.28571973873556   10.54685468784862
H         7.97310983530321    8.08634043873808   10.94100672361429
H         9.45519226624569    8.99260558454102   11.21303352048725
H         9.53453214936842    7.35715200836726   10.54389072257008
C         7.86862938465992   10.01062072243709    9.07483585659438
H         6.86979771858321    9.63675360426990    9.29327330344631
H         7.85757002332899   10.46925139387123    8.08766441435209
H         8.11879316094890   10.77341904094203    9.80780895114465
C        12.34198995124431    7.97342404564151    7.40874105789268
C        12.62524020744032    9.24880071938676    6.91836650662044
C        12.76545082862606   10.27116462595835    7.85243036816255
H        12.98393746317669   11.26771320480180    7.50207693376411
C        12.63518636821382   10.04126453951914    9.21056723766302
H        12.75827542920188   10.85466223586974    9.91021212906855
C        12.34257428507812    8.76740580803667    9.66750493153614
H        12.23265983595280    8.57264485383620   10.72280505527469
C        12.18416293777618    7.73034790839462    8.76449692137191
H        11.94162897995667    6.73211173695230    9.10591037440425
C        11.66775120693879    8.63490085027664    3.92950478907133
H        10.65456210548929    9.00198317242874    4.06483164431416
H        11.66956242422696    7.56750248655853    4.11958444678456
H        11.92673363279154    8.78614180305400    2.88588795262433
C        12.53483375724321   11.43611763068577    4.76806935246764
H        12.46529696622124   11.64766350445347    3.70598586219984
H        13.31701204310049   12.06921078992973    5.17340790528022
H        11.59714531733318   11.74252657998393    5.22193057272882
C        14.72070925025976    9.18250838972440    4.62183546565830
C        14.96577111115616    7.67390247683004    4.64280040835742
H        16.00389758193188    7.45313979366983    4.39380174984137
H        14.32642031586462    7.16548807888892    3.92515481434884
H        14.75887356328614    7.26634206149348    5.62858486407892
C        15.05720849908954    9.71335458465035    3.22741926182223
H        16.09486683322905    9.49235589959658    2.97837280678745
H        14.91998905984383   10.79063948261400    3.17805726711694
H        14.42436697871708    9.25131344504904    2.47337528546851
C        15.65752196482275    9.84252473446860    5.63635371474780
H        15.45502940655381    9.48225132277963    6.64288852171314
H        15.53831909220362   10.92349872317979    5.63173113342360
H        16.69617897586414    9.61720574757027    5.39558604436729
C        11.80203108226703    4.91702423114603    5.02764062072893
C        10.75089645995551    4.74625506777098    4.13892770732008
H         9.74027851012037    4.91908290263405    4.47822071105016
C        10.99696741486521    4.32720168278017    2.84332283018001
H        10.17533015274700    4.18896216048340    2.15585876253974
C        12.29560048921017    4.08117526762450    2.43055531411756
H        12.48888570859321    3.75516701862463    1.41906340346066
C        13.34718669381884    4.24340871541215    3.31849013486668
H        14.35984586060986    4.04333310332803    3.00018683838003
C        13.10403571762094    4.65605882294335    4.61560185164119
H        13.92093302821938    4.77333003176130    5.31221635937435
C        12.68139259881188    4.52836704162222    7.66939678623200
C        12.31853985157147    3.22742618019721    8.00128124635159
H        11.34031387057331    2.86132263847940    7.72505401587032
C        13.20193667093730    2.42124094680644    8.69440090082422
H        12.91437501863437    1.41435359338260    8.95711355530397
C        14.44884724243441    2.90457770935891    9.05728300724665
H        15.13552783303093    2.27476479605978    9.60376581081429
C        14.81390366235775    4.19793614500662    8.72427834346393
H        15.78458434906775    4.57890770328643    9.00740228063348
C        13.93425241880896    5.01126358476709    8.03226666480789
H        14.22295828434792    6.02322428936387    7.78387873264082

