87
CSD_code = KELZUZ | q = 0 | S = 0 | Stoichiometry = C36H43O5PRuSi | MND = 9
C         3.57931072274634    7.08251262069991   15.64748124499870
C         3.69987556983041    7.97392476489790   14.56342132895517
H         2.80866051416593    8.29429444886597   14.03189029697012
C         4.95765550513273    8.54263366835193   14.22690091562344
H         5.01255125370571    9.29166162472114   13.44235552486361
C         6.11736353266691    8.19704169595252   14.94246152077583
C         5.99075951082638    7.29589843282298   16.04026322794411
H         6.85926569596687    7.06764298347663   16.64552453938646
C         4.75108112052966    6.76490386464221   16.39082789670065
H         4.66255669620589    6.12277752786085   17.26102065284783
C         2.24497380488408    6.57647857246336   16.10868220537043
H         1.95627162952793    7.09046797274291   17.02725161127774
H         2.29590666472866    5.51035507055906   16.32438648363075
H         1.47784830622997    6.75012921407047   15.35732019189432
C         7.42492467802555    8.89662306539625   14.66424611555682
H         7.38464327721113    9.29281517142030   13.64370133153168
C         7.56634232357624   10.07692774070742   15.63402662323995
H         8.49373200559866   10.60768976515887   15.43488552889174
H         7.58382672506724    9.72766230223271   16.66454688754505
H         6.73720302093176   10.77251327865073   15.51929454592326
C         8.62443507726100    7.95397831702523   14.77128722863424
H         8.86177956105321    7.73261190899924   15.80938815639228
H         9.49871483466505    8.41764008318138   14.32177674693235
H         8.41838496333533    7.01899481419315   14.25373389054310
C         5.63026806193210    3.40936236705783   14.57837073036677
C         6.93876446637487    3.98288707824619   13.93899504273544
C         5.30641271626250    4.34919497235737   11.18444570582941
C         5.00479487260874    3.07649830194948   11.66387002525573
H         4.28872242744060    2.96402950518060   12.46568833150118
C         5.61973582824452    1.96729359727905   11.11633577835114
H         5.40315265323431    0.98744499553010   11.51211485869413
C         6.52352736493059    2.12011850624682   10.07724270972074
H         7.01621624922535    1.25505122421338    9.65975090878834
C         6.79582746260244    3.38043040767556    9.57291089769561
H         7.49112020625715    3.49862372167085    8.75472888310541
C         6.19508969896397    4.49758338351213   10.12581130095428
H         6.41884135879376    5.47977015552002    9.73376593059851
C         2.78154604528259    5.36191731922586   11.79934981666355
C         2.21118207980308    5.41494934312617   10.53295403788971
H         2.81802475953559    5.70768970946415    9.69043950496957
C         0.87748187001829    5.09001752454343   10.36751337469886
H         0.43017780661922    5.13658863553461    9.38541843074398
C         0.11781817639208    4.69326940405759   11.45736118762111
H        -0.92288219130054    4.43755176407688   11.32321872945754
C         0.69476693216228    4.60975818016620   12.71407735528331
H         0.10650854344353    4.28024923321681   13.55781979936955
C         2.02696363065471    4.94367800049536   12.88693084739456
H         2.50496388752448    4.86143235074022   13.85357727611003
C         5.73300819047275    7.87674381947408   11.01318461356246
C         5.52068881055116    9.16522951899971   10.52274244829293
C         6.63136916735665   10.00120694105020   10.43408188352094
H         6.49662470991054   11.00195417914022   10.05540028307293
C         7.89460559354834    9.58480941725254   10.81203248567720
H         8.73628932729460   10.25456930716719   10.71720764358509
C         8.07169910276328    8.30880132050335   11.31929502220272
H         9.04804757129958    7.96890290522250   11.62684453602966
C         6.98699238768372    7.45678512703366   11.43365486653568
H         7.11325246958117    6.46036406025968   11.83856097179118
C         2.36828918478349    9.15524281251223   11.00885108611033
H         2.41270971197656    9.58479191412849   12.00534747592386
H         2.36642671363802    8.07610977941962   11.10805174022840
H         1.41832844455928    9.45068293891337   10.57403600886195
C         3.82398952338700   11.69436745084845   10.16123855243245
H         2.81798093820850   12.09090908938820   10.06946845764773
H         4.43570331539234   12.19178594592299    9.41601434681561
H         4.19885938798119   11.98370724868885   11.13845637773863
C         3.61208351492172    9.36032225342116    8.07444779409709
C         3.35588868585028    7.86405668859566    7.89493986840336
H         2.42101248017714    7.57981948240067    8.37173499698853
H         4.16286287401694    7.27977176609503    8.33152217515808
H         3.28846491159233    7.61331935194420    6.83627007492179
C         2.43297287566347   10.13189594143586    7.47897751912950
H         2.30601054133647    9.87657580790225    6.42737212893346
H         2.59543750535099   11.20429503615009    7.54921872329360
H         1.50840828296791    9.89084189138320    7.99842377043753
C         4.88122012712485    9.73389177069657    7.30498499748840
H         5.74174728398753    9.18999404325636    7.68850761608157
H         5.08742804570236   10.79860223197469    7.38538046374884
H         4.76775524064271    9.49220258266721    6.24862330873418
O         4.66989823046198    4.26801394948891   14.65791376401651
O         6.89642981776626    5.25541148577144   13.71995291792432
O         5.54295637227393    2.25651332803577   14.94551879590787
O         7.89302873037507    3.28144724371288   13.67902069300747
O         4.64985435136353    7.01480325663959   11.03714185370488
P         4.53567897784080    5.75616514752061   12.04586430544633
Ru        5.12986406964980    6.23711687573049   14.20365991660317
Si        3.81854062965801    9.79290749908248    9.94698935570769

