93
CSD_code = KEMBUC | q = 0 | S = 0 | Stoichiometry = C48H36F2NiO3P2S | MND = 4
Ni        4.17776016124493    5.67649764861196    4.22436172614871
S         5.24260290492214    4.25120673797721    2.23921012575692
P         3.04363619478468    3.78874053499046    4.28529372037296
P         5.20132611384417    7.58342587183727    3.84543584811976
F         5.28443795032747    4.89695223870009    6.17820128262030
F         4.94821259987808    0.20811435621838    6.62689302640014
O         5.83476919659299    4.72121669701633    3.50195475672997
O         6.15079011536156    4.28572153358328    1.12628933984514
O         3.93853835817176    4.87847669827960    1.99321759177803
C         4.86842738867665    2.54118917035320    2.61937258520344
C         3.91551395143317    2.33212075150511    3.60361581134089
C         3.65102987491361    1.02421460539152    4.00714840274747
H         2.93539132722224    0.82563276506889    4.79202953351832
C         4.33290863005781   -0.03079617786531    3.42682720023606
H         4.12244680975229   -1.03929638475702    3.75133058675994
C         5.28736479181775    0.19769489277524    2.44698472927499
H         5.81733889801244   -0.63193442360881    2.00325838165300
C         5.56086016727273    1.49550893407850    2.04677245890956
H         6.30002266449259    1.72432797311776    1.29466179524334
C         2.63203657122494    3.19176854778556    5.96973003118192
C         3.62230447232774    2.68192268272387    6.81906478351725
C         3.29012340144347    2.28547335246950    8.10993499455824
H         4.05714938925180    1.87199719605523    8.74883267884630
C         1.99954019620256    2.43565311775744    8.58281550684974
H         1.75588468746650    2.12697561983186    9.58821502843752
C         1.03100539692063    2.99899602329242    7.76847494305875
H         0.02718307382464    3.14384613192110    8.13897559203902
C         1.34870607089254    3.37597223083117    6.47738856111522
H         0.59476724773547    3.82241800915626    5.84563043828721
C         5.03180204395815    2.55392956537285    6.38720022715655
C         5.83056499411769    3.65229848986411    6.08514022231784
C         7.15447617845101    3.54141826947018    5.70676225378339
H         7.70399273621608    4.43249422962679    5.45553439498666
C         7.72069275331677    2.28400984206196    5.61325133961833
H         8.74659005666664    2.17781728648556    5.29903982091236
C         6.97575732046483    1.15848510843828    5.92566053518883
H         7.39736042988308    0.16783501043255    5.86732460162426
C         5.66183860544003    1.31187226536055    6.31783944151858
C         1.45402011856677    3.59736737387046    3.40625904108938
C         1.04667827950756    4.59107205780067    2.52598870738827
H         1.68682559261757    5.44572697544276    2.37853944945695
C        -0.14168766583493    4.46349687052046    1.82853509658645
H        -0.45095676085353    5.24166615766602    1.14628787857006
C        -0.93215910636515    3.34056242784175    2.00237381881972
H        -1.86045166380790    3.23859306046605    1.45931259234759
C        -0.52685705524650    2.34174075104496    2.87329377076330
H        -1.13832076402483    1.46122988131779    3.00888225389171
C         0.66006750684673    2.46540493965326    3.57132390188868
H         0.95809040023510    1.68279835776860    4.25289148914677
C         4.39470562640819    8.65543615464377    2.60474554372450
C         4.29101939380114   10.03580660612058    2.72560379474749
H         4.68575130839866   10.53691376277612    3.59667680513582
C         3.67284420777379   10.77495819720045    1.73107951917576
H         3.59904136039979   11.84823231866008    1.83141903575506
C         3.14936542074353   10.14656988602078    0.61400283944230
H         2.67148902694555   10.72906936148140   -0.16019187267873
C         3.22908585896615    8.76775491168084    0.49839883052669
H         2.80898288233785    8.27093323597664   -0.36411530601518
C         3.84113752504225    8.02295099833814    1.49020824661607
H         3.88159008842953    6.94274446400236    1.41621677647495
C         6.82888572405964    7.25594976803257    3.09342771469251
C         7.86140275680796    6.89845380966620    3.95803020883988
H         7.68097395552334    6.91169840006290    5.02605364460659
C         9.09236861000881    6.52600887209112    3.45748725660425
H         9.88955183624358    6.24644931995147    4.13288632497048
C         9.30248566774165    6.49914504754278    2.08733088290814
H        10.26183994942889    6.19527581950775    1.69418414175098
C         8.27933157800939    6.85068950293256    1.22560962448030
H         8.43585110665173    6.81892505811648    0.15792218672655
C         7.04291522411493    7.22427477462246    1.72327136955620
H         6.24699691011540    7.48099782316233    1.04012997677393
C         5.68738307817349    8.77489104459772    5.14273475626519
C         6.68626810393918    9.71635536526943    4.90397920102864
H         7.18685064994537    9.73508584015349    3.94540404451645
C         7.03971508321067   10.62063771361050    5.88792555514636
H         7.81408305274376   11.34917895963522    5.69551661215443
C         6.40246380736042   10.59426968599625    7.11896260522288
H         6.68211198836097   11.30142639732955    7.88608983784505
C         5.41214828781067    9.65821552841152    7.36301627666325
H         4.91617566344578    9.63251912734170    8.32214697073037
C         5.05588668182025    8.75099288011820    6.37940470033154
H         4.28789918485845    8.01352395297222    6.56091612002873
C         2.71322848043334    6.52202842050377    5.01716063145447
C         1.83765156355315    7.32885462918220    4.29119638768882
H         2.00289525241865    7.50984293389615    3.23728623807621
C         0.74621681149036    7.92663179036673    4.90084217765095
H         0.08252985618041    8.54519491973631    4.31355964041139
C         0.50688474398838    7.73940665244947    6.25020659651312
H        -0.34575487731637    8.20370778861838    6.72369447885945
C         1.37465992992860    6.95524796304633    6.98813789817087
H         1.20546777788985    6.80326799105345    8.04492603775344
C         2.46467483184893    6.35239669875114    6.38023631373357
H         3.12334142422237    5.74942936868380    6.99091707761903

