25
CSD_code = KEMCUA | q = 0 | S = 0 | Stoichiometry = C10H8Cl2N2O2W | MND = 6
W         1.84347709528604    2.34593655817305    2.04672271883851
Cl        1.18498364208006    0.25086706707302    1.19845332968339
Cl        1.20664189274042    4.37554854773642    3.05090908769407
O         2.57477635882620    2.96401187569662    0.66458756323614
O         2.93602598365064    1.81773561103788    3.21051526383935
N        -0.24080949220377    2.77385662136958    1.10686665331201
N         0.08998852491461    1.72837756520254    3.44569050838199
C        -0.29258132192632    3.30379545071055   -0.10936680136996
C        -1.48993529050824    3.57173206169102   -0.75536782171421
C        -2.67572470622460    3.27250297509602   -0.10344657955914
C        -2.62487793281645    2.72055537066306    1.16621153411691
C        -1.38405978834921    2.48156454490971    1.75063512513377
C         0.37686109057574    1.20805494009845    4.63296074851281
C        -0.60375717746335    0.82775531654291    5.53669065120098
C        -1.93284465792760    1.00144857495835    5.18429519929840
C        -2.23529815941325    1.54402205653008    3.94596365737219
C        -1.19539787505292    1.89901401896650    3.09097494938756
H         0.67091941090733    3.51274356858573   -0.56512126631372
H        -1.48785391416435    4.00229480172861   -1.74332041231455
H        -3.62816748461202    3.46436054641476   -0.57365861097518
H        -3.53611780864031    2.47964393161884    1.68783264253328
H         1.43590903864329    1.10068688523630    4.84870223179139
H        -0.32872532238547    0.40798336163383    6.49044218958112
H        -2.72543836268212    0.72015111447366    5.86101543590868
H        -3.26259374325073    1.68845663385166    3.65511200242486

