52
CSD_code = KEMDEL | q = 0 | S = 0 | Stoichiometry = C18H31AuClP | MND = 2
Au        0.13736964202307    0.37359695045178    4.75286811340789
P         1.49704032632597    0.96624354976961    6.45111814558799
Cl       -1.21470110795582   -0.26772920629000    3.05900534839677
C         1.94356015492804    2.58006122339978    7.16459747687361
C         3.12870806011935    3.22130097277277    6.74622306507632
C         3.72154121789711    4.12030608681387    7.61933084482352
C         3.17336295977263    4.45291717243915    8.84924628104813
C         1.91142357962485    3.95923085070382    9.12838717089873
C         1.25823921588181    3.05355378350928    8.30060655062683
C         3.80025694906262    3.04515988858175    5.38288016878902
C         2.87551869189960    2.43027542959173    4.32785361050346
C         5.06290826831382    2.18585697128321    5.53249710640632
C         4.20384760468304    4.43116714275663    4.84223483388078
C         3.93566002073118    5.36970006546000    9.79045364852801
C         4.11807502760883    6.73710103154624    9.11689785033248
C         5.30745535029059    4.74796924340742   10.08808569587868
C         3.21031297402487    5.58178113833488   11.12187224199518
C        -0.17623122586926    2.68860248264106    8.68827686975024
C        -0.92694228404810    3.97326174501861    9.09063382078816
C        -0.97837516209007    2.07341375501681    7.53761800094162
C        -0.16321525769689    1.72631775301868    9.88356380782749
H         2.77880278694024    0.44814426039938    6.37007073652244
H         1.25132737849290    0.30649133625015    7.64388775039871
H         4.66260072944868    4.56279259310092    7.34272572084598
H         1.42227623958046    4.26616590590522   10.03429233698249
H         2.82918734171826    1.34384267840814    4.39113733365799
H         3.25002171655747    2.66101013984716    3.33235972974035
H         1.86932150747599    2.84416216158602    4.40184447637766
H         5.56324036260847    2.08950438020311    4.57174515284879
H         4.81793505045798    1.18824044798143    5.89224184657394
H         5.75515157883513    2.63677569151485    6.23955174793765
H         5.01785437511565    4.87740485239650    5.40484465890000
H         3.35366653831554    5.10914606594055    4.86490963952869
H         4.54163431904145    4.33796650252280    3.81281440643628
H         4.69112567774194    6.65436692313647    8.19757672579012
H         3.14988951877379    7.17133980511153    8.87674732656770
H         4.64395143464544    7.41467668838821    9.78564791513263
H         5.90201926465561    4.64039122698096    9.18524858859390
H         5.18592672506860    3.76397367816941   10.53612386170170
H         5.85907415339791    5.37739794880164   10.78263399031993
H         3.04111419155191    4.63492129336571   11.62982046433813
H         3.82085852859224    6.20607064864347   11.77059356134744
H         2.25834100127804    6.08687828497076   10.97567036755241
H        -0.56271299398217    4.39619897515806   10.02139596558394
H        -1.98188350382277    3.75067535154662    9.23215892453522
H        -0.83638361076312    4.72445468146650    8.30929328065799
H        -0.77828298357594    2.59360742205259    6.60036623556146
H        -0.78681335409649    1.00851037303083    7.41280472958807
H        -2.04319617034167    2.16841787799181    7.74162649917655
H         0.34751967096547    0.79832457927821    9.63303691427338
H        -1.18198538363703    1.48679683672371   10.17918173435164
H         0.34760290347695    2.17236235891878   10.73349672585787

