37
CSD_code = KEMFOX | q = 0 | S = 0 | Stoichiometry = C16H13NO6W | MND = 6
W         0.68003402550528    0.94584471584337    3.59990672109526
O         0.20602576991787   -2.55065476139217    2.67326713979972
O        -1.04994595889650    0.02553890710680    6.05395280040364
O         2.67812465798128    2.55369380578978    5.40271208922798
O        -0.94750645993977    3.62757784786279    3.52520338298627
O         2.33284185701322    1.93873638621013    1.12120383256679
O        -1.53581582928158   -0.17307412686287    1.67706095464076
N         2.35809406889739   -1.64591674244728    4.49994303263747
C         1.69337914916579   -0.95386781023181    3.61696829866701
C         2.70797160574388   -3.02947089333330    4.15335281589529
C         2.46357695995145   -3.09967796854396    2.65218776130386
C         1.63664137604329   -4.25330566451672    2.07616528926503
C         0.35440431419517   -3.48349116186023    1.62188641217743
C         0.76348496207944   -2.59780281069087    0.46233266574494
C         1.43419971733096   -1.58658856299127    1.00046192778748
C         1.46419996394091   -1.90016347225157    2.47721816175373
C         2.66643693325118   -1.22195726847004    5.84555405875569
C         1.82256701165884   -1.96169795161865    6.84405803228144
C         2.30593382521625   -2.61183687661146    7.88477826533452
C        -0.40694965267320    0.35256143367510    5.16746908287402
C         1.98972345455587    1.89069688520660    4.77039778787472
C        -0.35367359351438    2.65024915997611    3.54708589233460
C         1.74500686553757    1.55161869367429    2.02259199339325
C        -0.70020934817494    0.14990686683990    2.38051603435003
H         3.38777657852117   -2.93220518439066    2.09856876645548
H        -0.53794013711430   -4.09023565217021    1.49778179178137
H         0.55797812480552   -2.81364742418546   -0.56711386786117
H         1.94329658058251   -0.76743762327030    0.53332987498754
H         0.75916338546901   -1.92418023574764    6.65196349227385
H         2.05471320672137   -3.70907493461299    4.70959390465063
H         3.74423540003265   -3.22746284376969    4.43586578526086
H         2.12943275069883   -4.75678275939152    1.24806103667984
H         1.37180906266365   -4.98451547501962    2.83804435576386
H         2.45761015301284   -0.14915685584192    5.91604907924216
H         3.72930069271499   -1.39755892479378    6.04351587141342
H         1.66471035332629   -3.11446784942450    8.58754768708025
H         3.36366817285436   -2.65359286885494    8.08931778892356

