96
CSD_code = KEMLAP | q = 0 | S = 0 | Stoichiometry = C51H39CuO3P2 | MND = 4
Cu        2.05792553064427    9.91872040393100    5.99345347345497
P         1.21475939759059   12.80151630756808    5.73785039718337
P         2.04482004555133   10.54351856209303    3.93424240048038
O         3.20881798069496    9.45463354510044   10.81711701268144
O         3.52435945717262   10.03712940677326    7.27964570182721
O         0.99329614286054    9.17021913148014    7.42317901826472
C         3.77013759692076    9.80382139456769    9.62516813762702
C         3.05278275628500    9.70976140380522    8.43511700448292
C         1.67224014321577    9.24370252102042    8.48609556907605
C         1.12729279257298    8.90001057992066    9.76576002334889
C        -0.19692724014045    8.46085988523862    9.92746272836201
C        -0.68159414011501    8.15893706090189   11.17306941593969
C         0.14355460892948    8.28546428079363   12.29559204358782
C         1.44125866957241    8.71439547470655   12.16646455807797
C         1.94706231907168    9.03000455248390   10.89843920579281
C         5.12929535893209   10.30269607956996    9.76359343811783
C         5.68010122210438   10.46901660541569   11.04117719923072
C         6.95923438690530   10.95969336765886   11.20144607536614
C         7.72358899287313   11.29762149585447   10.09568153798442
C         7.19194122452892   11.13537719849766    8.82654118776623
C         5.91322900365364   10.64333461939040    8.65599768255810
C         1.53222749053474   12.64162599072483    7.53998507259620
C         0.60763603421552   12.20505649799189    8.48006446171291
C         0.95598212327240   12.14543822016754    9.81963860421586
C         2.22593765812562   12.51038307275100   10.23038997436264
C         3.15663261445124   12.93719527388275    9.29556681564913
C         2.81165630677127   13.00211881450233    7.96042719310209
C        -0.59852278287514   12.60149395284484    5.65602614658903
C        -1.46238848526824   13.61072129048711    5.24678737980211
C        -2.81561459993664   13.35569007520158    5.11357160867793
C        -3.31876357425835   12.09263286115778    5.37293878132279
C        -2.45958226014831   11.07528408037621    5.75499384360651
C        -1.10660441041254   11.32334523054370    5.88535234898075
C         1.38448763147786   14.63345743396321    5.69148301758276
C         2.17421967367756   15.20518119321464    4.70210116884717
C         2.35136417592244   16.57737259117783    4.65268520950385
C         1.74318568595157   17.38714514350379    5.59557928684100
C         0.96284257215834   16.82208115699249    6.59302837508174
C         0.78661855652923   15.45305005820468    6.64557992772226
C         2.61356160766950    9.20368674170770    2.82274548364485
C         3.53618985713352    8.32834403003785    3.38938360226237
C         4.08262392587955    7.30519649245763    2.63918545589135
C         3.70291912641291    7.14449914019933    1.31573741518015
C         2.78151750301306    8.00914776202374    0.74860612013050
C         2.23799429349154    9.04017192911758    1.49491806550232
C         0.56559920900179   11.13282397351940    3.06247182106887
C        -0.45503537634563   10.20034185126887    2.89051081232068
C        -1.65122910827400   10.57580854366371    2.31187556944724
C        -1.84118703170037   11.88845000332318    1.90852546049232
C        -0.83503377318100   12.82149566968874    2.09034645558585
C         0.36435803669318   12.45047242118592    2.67271247365733
C         3.35963233065030   11.74133589956718    3.54783363159271
C         4.21474771690220   12.10445438444090    4.58284359315072
C         5.25728488172833   12.98088517196357    4.34423265213887
C         5.45072861184289   13.49296373556986    3.07051825981177
C         4.61549483267018   13.11127182830878    2.03240810669026
C         3.57466393443515   12.22884610757100    2.26389125000267
H        -0.80908926488855    8.37339783523802    9.04289677568592
H        -1.69993973820080    7.82239777596336   11.29562668136656
H        -0.24535997929284    8.04470468040334   13.27362030831097
H         2.08992764945128    8.81880924911871   13.02223344798698
H         5.09213053821362   10.21303549402247   11.90937713923423
H         7.36458263762418   11.08208352932139   12.19612132625064
H         8.72466307803436   11.68302586172899   10.22378445544238
H         7.78278104462222   11.39351066960858    7.95911076683221
H         5.50653874651133   10.51773719755622    7.66742196428932
H        -0.38809005908318   11.91608887305512    8.17560990808945
H         0.22804421419230   11.80721104180345   10.54439424511899
H         2.49367091364325   12.45800649533945   11.27575992078975
H         4.15277556304856   13.21298603831057    9.60979751713326
H         3.53262200901685   13.34277885017981    7.22905110981791
H        -1.07912938165479   14.59723462548680    5.02837425288505
H        -3.48011195042844   14.14866116810713    4.80119848166095
H        -4.37653568521002   11.89924167492915    5.26893108902344
H        -2.84407132762001   10.08357120877114    5.94428322130262
H        -0.42997849773968   10.52180644442701    6.16066706587798
H         2.66254336883056   14.57050266036949    3.97490896063482
H         2.96769183714494   17.01327658416017    3.87951813288914
H         1.87943204366389   18.45812228208864    5.55886309573449
H         0.49234828175175   17.45356037347619    7.33318957865252
H         0.18157317684113   15.01060680433276    7.42554446309261
H         3.80723878136090    8.46792723743612    4.43068664992714
H         4.79866061940885    6.62916299702744    3.08312002332939
H         4.12239477719296    6.34202129794309    0.72686869024775
H         2.48453775741184    7.88026066295842   -0.28240139100314
H         1.51523198574142    9.70834855977709    1.04715303902729
H        -0.29458854281943    9.18238837458972    3.22329972454031
H        -2.44045734189001    9.85012292076330    2.18052439329368
H        -2.77751457610388   12.18480232704426    1.45926211866812
H        -0.98725269669487   13.84670990684454    1.78519827703285
H         1.14220066721514   13.18575525059089    2.82520573581482
H         4.05105221463226   11.67805641800713    5.56583311536070
H         5.91984916597609   13.26669602940261    5.14833180845588
H         6.25921810768795   14.18461921228893    2.88323463882190
H         4.77814269346995   13.50052075526351    1.03750615772324
H         2.93064593080554   11.91884813173996    1.45245385490717

