111
CSD_code = KEMLUK | q = 0 | S = 0 | Stoichiometry = C48H54N6P2Ru | MND = 6
Ru        3.90678230817021   -1.79469086432784    5.35337953714982
P         2.90253920032277    0.23878078870412    5.12139565879361
N         2.77361553842525   -2.52963432855865    3.81665528649140
N         2.31334589468679   -2.53928003830749    6.31645048928282
N         1.94803864143380   -2.49417206871207    7.56695276694769
C         3.17704115308535   -2.46862596903510    2.53733139711451
H         4.09712734236020   -1.91651674230455    2.37337028286197
C         2.49453578343732   -3.06307928816790    1.51736785141906
H         2.83913838228015   -2.97739289530864    0.49845512140713
C         1.34669778871555   -3.83369723327712    1.80764779290129
C         0.64677834728762   -4.53714758259235    0.81084364731969
H         0.98229067739718   -4.45163346272747   -0.21298996282417
C        -0.42561589227999   -5.32323624291152    1.13267606117364
H        -0.95774559610452   -5.86498956632751    0.36423840815226
C        -0.82728773623996   -5.44130604796602    2.46829560767678
H        -1.65901644333798   -6.08391198790210    2.71791656671155
C        -0.17145873600384   -4.75639076169020    3.45660895646083
H        -0.47663053323545   -4.87788747154965    4.48032291107379
C         0.91913134823848   -3.91965331814173    3.15852573001850
C         1.65552560909654   -3.19751973709382    4.14774852550302
C         1.34927962956115   -3.11513884272259    5.54687361484732
C         0.28502768438676   -3.43971619951400    6.41065803314614
H        -0.66592643446208   -3.86761694434004    6.17004816008877
C         0.71160672679044   -3.03027131536324    7.66360100684385
C         0.02536937663342   -3.09779701921615    8.99835153100310
C        -0.10937896076571   -1.67232268755049    9.54906625723970
H         0.87177281953803   -1.20804970572347    9.61222496105921
H        -0.55862072796327   -1.68622492361685   10.54036087072840
H        -0.73640707353573   -1.07064578661251    8.89303274289496
C         0.89179755998037   -3.92900830793119    9.95306931644565
H         1.88317035626045   -3.48926908368893   10.02904077319022
H         0.99261766518400   -4.94808754848571    9.58354972581825
H         0.44331267001391   -3.96309091258685   10.94422557356933
C        -1.35903175890654   -3.73421875304768    8.87448303943752
H        -1.28268855044321   -4.74903435302102    8.48948575758709
H        -1.99038552347345   -3.15440599346308    8.20436006609342
H        -1.83992814340896   -3.77317925374042    9.85020877048876
C         1.16573588633762    0.44288845241758    5.67598456422171
H         0.86579619341705    1.49027147408406    5.63995806901772
H         1.05703158823840    0.05570736878855    6.68774307807088
H         0.53087386347597   -0.14947382186563    5.01558517458285
C         2.78790329475128    0.90442433822476    3.41596274677528
H         2.48993883340222    1.95304823290650    3.42697986319080
H         2.04983891578563    0.31508351463478    2.87089676597292
H         3.74998357571400    0.78976706186328    2.91899231791254
C         3.76105962747739    1.57234775915998    6.01407733027785
C         3.50123274339337    1.77109570981679    7.36748796068858
H         2.72500840441617    1.19642334690080    7.85239271287342
C         4.23934841555731    2.68595707973463    8.09497511215191
H         4.03043407901581    2.83255530098465    9.14477114129397
C         5.25350398362536    3.40415136934765    7.48414583023765
H         5.83623188189551    4.11131954177816    8.05561336652559
C         5.52780333284883    3.20169670198402    6.14223367499059
H         6.32502114160221    3.75332339144022    5.66557954772782
C         4.79253131831031    2.28632474703450    5.41143039466444
H         5.02708949829442    2.11977013090702    4.37015401412539
P         4.90892383118090   -3.82988773899240    5.57920762892761
N         5.03802475540537   -1.05514983625192    6.88999611020199
N         5.49986862120126   -1.04957282821312    4.39008757309424
N         5.87152552961366   -1.10550393189360    3.14183541942615
C         4.63825820554080   -1.11923340738417    8.17031615625395
H         3.72567753243949   -1.68273216396427    8.33709734087492
C         5.31469101754226   -0.51356169137696    9.18782142977753
H         4.97363320266433   -0.60247969484511   10.20764225255666
C         6.44957130986161    0.27456799401563    8.89349811346071
C         7.13870805869005    0.99413028053063    9.88630264050314
H         6.80624479765035    0.90726954795459   10.91101187068575
C         8.19649017030191    1.79774572520091    9.55935321223541
H         8.71996569578353    2.35222336624627   10.32467037165677
C         8.59400656511087    1.91762539289973    8.22261354414785
H         9.41348418420517    2.57432779031577    7.96916543910504
C         7.94899367020398    1.21710776297323    7.23813653442159
H         8.24950885545349    1.34008622639049    6.21307672840223
C         6.87389918748185    0.36250147217509    7.54181123078195
C         6.14751654040425   -0.37430905188328    6.55625114547170
C         6.45716354782296   -0.46110393489129    5.15819099958402
C         7.52392311539704   -0.13933001114501    4.29638611605843
H         8.47138963156649    0.29569279957986    4.53826311570937
C         7.10565532528897   -0.56407772236931    3.04565449164967
C         7.79794997930968   -0.50969339321941    1.71342008685775
C         7.94499521540559   -1.94176135373138    1.18315705211654
H         6.96686132991327   -2.41206910850123    1.11765223200324
H         8.40272766242645   -1.93878421525923    0.19566099953118
H         8.56938988105734   -2.53120732892100    1.85266104700003
C         6.93040133667769    0.30202928758854    0.74311102374452
H         5.94218022864801   -0.14512993634310    0.66945483366544
H         6.82144977805322    1.32566330680058    1.09737396109831
H         7.38290073690098    0.32460456812781   -0.24654238086175
C         9.17742913345823    0.13764278242312    1.83499070950206
H         9.09263676192155    1.15667766206885    2.20682913201862
H         9.80981522727466   -0.42939722304279    2.51498044276023
H         9.66214598774731    0.16753163589591    0.86082848968010
C         6.63104348379641   -4.04607256511267    4.98557061079321
H         6.92404353999938   -5.09569054958689    5.01216302216442
H         6.71958498622464   -3.65628578166784    3.97279173052257
H         7.28481029740812   -3.46005820082954    5.63302646060919
C         5.05747530803462   -4.48851051800520    7.28479844704673
H         5.35215504392838   -5.53804562813364    7.27191452834021
H         5.80816615682727   -3.89895720437668    7.81210087040090
H         4.10601270441949   -4.36936114541221    7.80070995202612
C         4.02018422732917   -5.16180316883288    4.71416402673093
C         4.25838341047240   -5.38502755362900    3.36067224837764
H         5.03948982954206   -4.83341941920782    2.85728233309645
C         3.49267813052325   -6.29517116906862    2.65597340582302
H         3.68474069015028   -6.46059669255038    1.60574310003227
C         2.47249715373582   -6.98414916433634    3.28990529551121
H         1.86818599389513   -7.68713482524066    2.73594858587106
C         2.22056047137163   -6.75811638700470    4.63248565713578
H         1.41916479535897   -7.28711205693066    5.12745186571629
C         2.98336810602331   -5.84744605963687    5.34039579289459
H         2.76646209075189   -5.66210419071563    6.38233847127309

