48
CSD_code = KEMREA | q = 0 | S = 0 | Stoichiometry = C19H26Cl2Zr | MND = 12
Zr        6.38379285956843    7.61455597512190    2.51733173668515
Cl        6.48338290040361    9.75758823867363    1.60864802466055
Cl        4.11337698124477    7.72927310684441    3.02590815064340
C         8.02566824783228    6.44877905722446    3.81560307827542
C         6.85267256294040    6.53772553482501    4.63608545461691
C         6.63744468048510    7.90062353432519    4.97750240395639
C         7.66025382769835    8.66867432575511    4.36372291938600
C         8.50244636523464    7.78753391076210    3.62602568278447
C         5.97609335838170    5.41913046856578    5.13804005296927
H         5.79333964924398    5.54379879556192    6.20588463882561
H         6.43967785056191    4.44427643023385    4.99853116426300
H         5.00606726645805    5.42584269766658    4.62794321875971
C         5.57425871447451    8.43185017439335    5.89629702517335
H         4.74477209023595    7.73180211817763    5.97487198216191
H         5.18146021962653    9.37852097675550    5.52064837716866
H         5.98076617215353    8.60471690589504    6.89538979199070
C         7.90786416131492   10.13588472125482    4.56367443898616
H         7.00317105846688   10.63541337189648    4.90631395725609
H         8.23055362142391   10.60987781484185    3.63651868061473
H         8.68613966353454   10.28926740634556    5.31514085380118
C         9.69991476667035    8.31844558526574    2.88330487496713
H        10.34332028881845    8.87537461925034    3.56774121771337
H         9.37962921733693    9.00840457602450    2.09432078591696
H        10.29287691962296    7.52645006294290    2.44125944439345
C         7.44545099058382    5.61753153287537    1.69008449785399
C         6.04926343188277    5.37172024211261    1.59340286957354
H         5.50406550691385    4.59440822443677    2.11836271795292
C         5.51833149077197    6.19016393132888    0.56882582095181
H         4.50539849118930    6.14904317431771    0.18703905682129
C         6.56763221189719    6.97122206099753    0.05229867072502
H         6.50693423892896    7.63492569502608   -0.80199616932565
C         7.75216137059411    6.64809901517903    0.75763693805208
H         8.73212177130758    7.02757302143219    0.50167586490634
C         8.22781525709691    5.21324123985720    2.93309028533830
H         7.63373796285001    4.42567329377623    3.41123846315524
C         9.63725568321805    4.56864064853378    2.76937715002395
C        10.50482297934388    4.92308749212686    3.97918715881671
H        10.71360772933554    5.98700163654996    4.02180562591574
H        11.45054883891244    4.38800978065309    3.93079649171199
H         9.99813511410798    4.64284240782971    4.89986681649687
C         9.43387559511471    3.04493806975961    2.74635258968579
H         9.00916014982224    2.69243749636946    3.68422180198031
H        10.38381297816708    2.53685330325810    2.59818562780764
H         8.76704479575278    2.76418262830356    1.93417382766438
C        10.35111139146755    4.93054792973968    1.46567255252326
H        10.62287907057833    5.97945652790430    1.41315588400466
H         9.72356830156018    4.68850860368759    0.61184702727064
H        11.26982120487371    4.35278163534257    1.38689047412379

