95
CSD_code = KEMTUT | q = 0 | S = 0 | Stoichiometry = C42H47BrN4Zn | MND = 4
Zn        4.40443347833995    7.56306429983368   -8.65881375891528
Br        3.24008872397863    6.37126568095476    0.80179773716851
N         5.90496987622798    7.24436127006464   -9.98664205130396
N         3.24886458803281    8.23309831886556  -10.18576390163623
N         2.93635801198084    7.95022267868745   -7.31071093038312
N         5.52423974351650    6.82112837834119   -7.13627910846273
C         5.89755171735551    7.50091314346425  -11.32011128557291
C         7.17946047631706    7.16829213492060  -11.90185816666739
C         7.94619077063787    6.67982957956406  -10.88789288414817
C         9.34486003639263    6.17193637521787  -10.93014665263020
H         9.76189472897482    6.27629712844576  -11.92831808769973
H         9.37475528520169    5.11767643961207  -10.65452385770229
H         9.97404654032810    6.72212206454839  -10.23086643081839
C         7.12894092442616    6.73375021710072   -9.69610031492638
C         7.52427086853336    6.28952680108901   -8.45018093319203
H         8.51755859211742    5.87318424387760   -8.37610788767492
C         6.77040779659615    6.30318291721145   -7.28788293402602
C         7.23213913993883    5.74922445182491   -6.04246821851087
C         8.56187654957546    5.09962420779388   -5.86939156336570
H         8.71757468468399    4.78135207211275   -4.84250473474258
H         9.35824948287005    5.79579352340539   -6.13152856315841
H         8.64700102839011    4.22693199925980   -6.51689258335202
C         6.23550968651811    5.94129617073869   -5.13131356703354
C         6.26858708591822    5.44853623345593   -3.72389765412034
H         7.10443705509610    4.76445516302344   -3.59650030647579
H         5.35612249983118    4.91475657042339   -3.47032611192457
H         6.39136758847106    6.26648647561089   -3.01557501750426
C         5.17419450847205    6.65159452983735   -5.82865900557387
C         3.99185109540842    7.14175186467954   -5.26251439269499
C         3.81189424423223    6.95684284511026   -3.80201642665844
C         4.41397048537279    7.82832881806120   -2.89995446121551
H         5.01495271336390    8.64508350096073   -3.27235832292492
C         4.24557551142965    7.66313500514496   -1.53683660498603
H         4.70944634481660    8.34265954803269   -0.83805835602245
C         3.47353789717250    6.61026791127116   -1.07739050473906
C         2.86757335163310    5.72718673129799   -1.95416302678037
H         2.27008850423818    4.91092354626191   -1.57741256640358
C         3.03744676684175    5.90856305996480   -3.31497226413049
H         2.56890423701622    5.22800154393064   -4.01084451065229
C         2.96316712289407    7.78941900386944   -5.95626640608037
C         1.74740551335187    8.34209807442461   -5.37873637483057
C         1.36993961850135    8.48382176632188   -3.94270589643922
H         0.50986961207448    9.14371377930637   -3.85508220255413
H         2.18230204659078    8.91194832198674   -3.36087173430548
H         1.10510100573063    7.52427680035351   -3.50110345415307
C         0.98831275748834    8.77682946190343   -6.42524800961827
C        -0.36318698012574    9.40413496454415   -6.41899586547467
H        -0.76549468141414    9.47007576186154   -5.41208233671186
H        -1.05470357547736    8.81502522308903   -7.02093175296585
H        -0.31901571223318   10.40916729533921   -6.83859975862227
C         1.74619463779313    8.52522476391679   -7.62248682112093
C         1.28629602676839    8.83806314780831   -8.89143372349136
H         0.29139079636912    9.25223524793232   -8.95556653116964
C         1.97580202199225    8.69282132555970  -10.07857319295987
C         1.45928713113216    9.05004245123645  -11.38144724079172
C         0.09405136499256    9.58872655008497  -11.63035194001796
H        -0.06908464204300    9.74612375443716  -12.69327721854760
H        -0.03776947711446   10.54190386040038  -11.11825193668668
H        -0.66391839533387    8.89854528332021  -11.26046982458153
C         2.45707525426654    8.79607613907161  -12.27231074565525
C         2.47633663592852    8.98899733752897  -13.75071177984180
H         1.45588055912030    9.00753245029577  -14.13876938169997
H         2.98894157394924    8.14349399491715  -14.21272881582542
C         3.18461776186356   10.29626271569641  -14.13319368582864
H         2.55774676700075   11.13352518878136  -13.81844860884012
H         4.12651239599513   10.37172920450526  -13.58531810434457
C         3.46251442891329   10.40304890738948  -15.63314752322609
H         2.55699000126910   10.15099446394388  -16.19039938643002
H         3.71795429818774   11.43860474166470  -15.87126341214583
C         4.60929480313713    9.50440458012556  -16.09351728946051
H         4.36786362452197    8.45903149174913  -15.89055309927554
H         5.50885437398905    9.75756302406034  -15.52607194421071
C         4.89187881410185    9.66495589033541  -17.58216779526000
H         5.71764008365188    9.02596568563892  -17.88823952018481
H         5.15414710593659   10.69527705018616  -17.81301260681046
H         4.01544924845949    9.39621816052771  -18.16803583606969
C         3.57676202755948    8.30081799870950  -11.50164733686591
C         4.81237460515849    7.97770391520036  -12.03247271642112
H         4.94144887863981    8.10970426680858  -13.09512082096627
C         7.52098429497085    7.32263187425747  -13.34526162705642
H         8.60493128841062    7.37734438499297  -13.46583732132104
H         7.10008138330237    8.25730854232895  -13.72380399797452
C         6.98064348644045    6.15351672094192  -14.17821430299835
H         7.45335031004208    5.22750358926395  -13.84337051130691
H         5.90701656479437    6.05320070076605  -14.00397567070495
C         7.23931527750397    6.35480484818831  -15.66865176457301
H         6.78637632084125    7.29615988675390  -15.98917878999954
H         8.31536841376805    6.43112655864794  -15.84389957241092
C         6.67126595474044    5.21472095818689  -16.51017105049820
H         5.59876396387360    5.12711034533615  -16.32100565587404
H         7.13699707090672    4.27455582033199  -16.20616022428791
C         6.90476633656813    5.43889383166413  -17.99909698022557
H         6.50289933888428    4.61177153544005  -18.57960036059270
H         7.96875718772113    5.52142972408231  -18.21054705940331
H         6.41906075341479    6.35536918998887  -18.32773226873118

