60
CSD_code = KENHEQ | q = 0 | S = 0 | Stoichiometry = C16H34Cl2MoNO2P3S | MND = 6
Mo       11.08951298943049    4.30225706024964    1.29885508071803
Cl       11.59575799412958    5.55476206116015    3.12818470819497
Cl       13.46170640661462    3.59083263064274    1.33977755328697
P        11.83345003581094    6.03460231894561   -0.23589405466465
P         8.92731056154068    5.26983226120210    1.71373293942495
P        10.67247471930000    2.29717513293315    2.60953744613528
S        10.04646220767180    2.62410942688557   -1.39784969948078
O         9.13596834941672    3.48036986696985   -2.13294560050003
O         9.53865217708456    1.33227465426404   -0.99172814267329
N        10.57335553654740    3.40007165572534   -0.11237775326219
C        13.33863027751088    5.58082293348617   -1.16593186163529
H        13.59404118538400    6.36086019929230   -1.88524537654591
H        13.15617627262627    4.63903032259355   -1.68402365470885
H        14.16065772181613    5.43408376939766   -0.46534017085007
C        12.30474126239914    7.70457769558974    0.34673338252470
H        12.64588191252839    8.31739795721435   -0.48784769380907
H        13.11054050917038    7.59134146151846    1.07346711740790
H        11.45979614968508    8.18455593055025    0.83779154610826
C        10.69762416063583    6.37360932478761   -1.62885543591378
H        11.23524225062206    6.84404503091233   -2.45243163878519
H         9.88895288503984    7.02814387663878   -1.30978796625466
H        10.26542434957163    5.42599679826202   -1.95723178736641
C         8.18356283880775    5.05192246609800    3.37663017131979
H         7.19978903882486    5.52047922275638    3.41828769927049
H         8.84628224592625    5.52372617260085    4.10320430132037
H         8.09368960257744    3.99341359185494    3.61358010847820
C         8.72897443013762    7.09001513113227    1.59984405363444
H         7.71563763814548    7.38184975125553    1.87754493468484
H         8.93706356861734    7.42183059441942    0.58473713825684
H         9.44181748725256    7.54914913537378    2.28613935148006
C         7.61843198449623    4.66406552102666    0.60478778249945
H         6.69758790869746    5.23456218192566    0.73076250887117
H         7.43928684408011    3.61148148512408    0.82070109644874
H         7.97279909117112    4.72851907867374   -0.42476457751151
C        10.85176328227886    2.35628108456121    4.42867845524935
H        10.65361355191730    1.37843666254400    4.86796294019903
H        10.17488780990299    3.09875773634070    4.84985337058410
H        11.87677704346425    2.65911203810058    4.64914908367868
C         9.08306182600239    1.43739283836550    2.33481606274678
H         9.08445868942826    0.47422762065059    2.84627894277806
H         8.99410290567350    1.28163633642754    1.25689457577810
H         8.23978882179706    2.03018603641703    2.68205123821198
C        11.78965436492398    0.91876572969518    2.18734961738453
H        11.61363124968999    0.06999663533809    2.85047937729190
H        12.82606635086712    1.24671556043625    2.26324468990864
H        11.57353716474425    0.62966142261678    1.15776488311875
C        11.53522465586488    2.42420130273650   -2.35797790341919
C        12.66150953801606    1.93085357255542   -1.72768761380348
H        12.60639092690954    1.65196179613540   -0.68672508479518
C        13.84589697697284    1.83730883906169   -2.43529355477173
H        14.73334677489186    1.46445391274375   -1.94620094521221
C        13.90897905232380    2.23434621085049   -3.76888985929420
C        12.76241249421270    2.72912269307692   -4.38057281659483
H        12.80119643586091    3.04326847555889   -5.41370926650043
C        11.57406490830287    2.82950406270883   -3.67575393814342
H        10.67539245668695    3.22253369024157   -4.12520471547103
C        15.19559338023799    2.11561863697420   -4.52686222071866
H        15.17174192453807    2.71224498854685   -5.43511133795719
H        15.36681047664579    1.07586126321970   -4.80561432963940
H        16.03371434460933    2.43708415262305   -3.91236315672017

