99
CSD_code = KENKAP | q = 0 | S = 0 | Stoichiometry = C52H40MoOP4S | MND = 6
Mo       -1.30811224029682   15.10842689521868   13.54621730460910
S         0.50201544431069   15.89168757285600   14.49494866633700
P        -2.67308766476151   17.21034325428715   14.62744626484030
P        -0.89685467577246   16.55741869986973   11.72608322087237
P        -3.07156182299015   15.30816922674339   16.39481109814685
P        -0.49343180620128   12.93034115338680   13.61183158343356
O        -2.72739263415636   14.53311946721196   12.88887154767293
C        -2.20463495302946   18.27808697981544   13.27393584971387
C        -1.53482795440789   18.12190514705964   12.23375307827766
C        -2.01829176236924   14.21916841200688   15.50450311557681
C        -1.42612127574641   13.15763507818407   15.16810279000490
C        -2.17063184707565   18.20550227848780   16.05236548732832
C        -2.97677948275519   18.34257917377068   17.17649925560980
C        -2.50878494497106   19.03291973143418   18.27776022380227
C        -1.23088461758446   19.56989862345779   18.26617620719004
C        -0.42548701702568   19.43043701002025   17.14776472059940
C        -0.89278343185196   18.75266412162417   16.03661502557810
C        -4.47709222177998   17.33411227859019   14.50475536316377
C        -5.18304252424597   16.18912839664349   14.15271531930917
C        -6.55813267142337   16.24414262912308   14.02088047541295
C        -7.22408093173411   17.44081063746979   14.23723672147520
C        -6.51616220693325   18.58738577180523   14.56305969803241
C        -5.13943093856577   18.54128033998839   14.69047709467522
C        -1.92744482428913   16.10803214032517   10.31017430777916
C        -3.30722480022953   16.23289621861195   10.44692627380586
C        -4.14198771099854   15.75644030458075    9.45503434485880
C        -3.60636879442934   15.14598551588104    8.33052252628965
C        -2.23418702414736   15.01187731873276    8.19792782167874
C        -1.39118377157985   15.48596706695018    9.18789717134866
C         0.73763011559562   16.85225729964148   11.02058083071539
C         0.97694985697854   18.01035476770559   10.28854111933680
C         2.22873691392969   18.22702679036186    9.74401279008240
C         3.23618268679876   17.29225207279268    9.92867759627426
C         2.99660376919237   16.13887798304841   10.65903757112374
C         1.74673303171931   15.91499387851949   11.20803126842930
C        -4.53590980506013   14.29084921979721   16.77760204656239
C        -5.66886688481859   14.95408358547418   17.24094122948004
C        -6.82449064496520   14.24560043635308   17.50926403600369
C        -6.85904566453956   12.87643107669964   17.29784567836933
C        -5.73833423336173   12.21906654929807   16.81707683682534
C        -4.57589572399932   12.92115884679980   16.55216190703809
C        -2.17965672801310   15.46260928581288   17.97383798536391
C        -0.81886985650633   15.75218131891501   17.91402220449299
C        -0.11684591446548   15.98853043190939   19.07992389367750
C        -0.76585864678293   15.94581790408486   20.30355046834530
C        -2.12039218872446   15.66178356691879   20.36090324597039
C        -2.83311690712698   15.42658226360435   19.19928367527873
C         1.05387698351408   12.22160523909513   14.21188477867651
C         1.77364523740328   11.35414661217377   13.39546566973894
C         2.99533440842827   10.86753544379055   13.82052589919238
C         3.50686904026139   11.25798636334007   15.04873389351930
C         2.79891165006148   12.13687841603923   15.85308444601291
C         1.57384807855231   12.62452566169146   15.43730712159646
C        -1.42534434960869   11.55469812173762   12.90072858061751
C        -2.11396330643354   11.77147964664402   11.71368870454825
C        -2.85472207978602   10.74416674116277   11.15671719830051
C        -2.89903671059350    9.50647571091257   11.77919798029862
C        -2.20944911449797    9.29172283261797   12.96322047586239
C        -1.47046904141789   10.31384283185856   13.52881961809549
H        -3.97125386408086   17.90873510586950   17.18048245641106
H        -3.13518876894528   19.14279273451352   19.15131988275311
H        -0.86258021766766   20.09570080883474   19.13486005656421
H         0.57238438237731   19.84320201523291   17.14364279071176
H        -0.26823349142283   18.61824716457214   15.16200164961705
H        -4.63711084226560   15.26883984918826   13.95885210078955
H        -7.11066362338733   15.35621906377215   13.75007158133482
H        -8.29937804509028   17.48312272145250   14.14125154353874
H        -7.03952788289128   19.52038367119763   14.71563516755827
H        -4.57333137918755   19.43072540568365   14.93334157438967
H        -3.71011511502184   16.70219456415694   11.33706493558849
H        -5.21305722237166   15.85290954530172    9.55951173306320
H        -4.26145055850627   14.76943105822159    7.55826151667005
H        -1.81932759438700   14.53074939867679    7.32372564431105
H        -0.31798003996012   15.37523464840629    9.09593370602908
H         0.18005253823848   18.73156901918299   10.16437160666173
H         2.42355779965201   19.12685439949688    9.17855807670059
H         4.21507445050909   17.46756708492214    9.50648316672486
H         3.78705556000499   15.41753165350944   10.80677217193086
H         1.54355848914500   15.02646124308130   11.79909912685659
H        -5.64117922105367   16.02706206980415   17.38302842816520
H        -7.70112407455042   14.76102582315518   17.87381733109400
H        -7.76414829386278   12.32292843398288   17.50009714021934
H        -5.76999206339457   11.15326543437373   16.64388487041197
H        -3.70208681902221   12.41321175544849   16.16658673314579
H        -0.31360894015833   15.79763177115611   16.95491972752431
H         0.93835791194384   16.21218612961047   19.03031327254421
H        -0.21635727928274   16.13535135830129   21.21394994450424
H        -2.62620548416592   15.62682856807601   21.31517414404076
H        -3.89111641739881   15.20768063554858   19.24373201253404
H         1.36388874918748   11.06465486489925   12.43537925514088
H         3.55329816765333   10.18713712927210   13.19343431349843
H         4.46408002934332   10.87954778745767   15.37665511027195
H         3.20549983985132   12.44622049857859   16.80479286662008
H         1.01403576094659   13.32113752263269   16.04976268959658
H        -2.07473786657887   12.75377126886962   11.25536012893238
H        -3.39802181458134   10.90757582297812   10.23736637127353
H        -3.47592681745060    8.70437845580295   11.34186632815778
H        -2.25128143534166    8.32538593001385   13.44516892891611
H        -0.93052137010667   10.16456524145925   14.45500860340132

