51
CSD_code = KENLUN | q = 0 | S = 0 | Stoichiometry = C21H26IIrN2 | MND = 8
Ir        7.84272042719187   11.78542947256780    6.87028820207463
I         9.27128953515466   13.10873212403392    8.70186493907053
N         6.22573119791234   14.44333851848138    6.49051449437342
C         7.15821008441206   13.53556491920644    6.13556415605691
C         5.43880051047470   14.41148682674788    7.69109942195743
H         4.37829999526055   14.29449760612408    7.45985512702444
H         5.58091892452408   15.33570345442142    8.25245553688813
H         5.77311771353134   13.57754325211950    8.30442149965103
C         6.21322821751702   15.47297358236100    5.58482598689496
H         5.54231236752973   16.30203969381755    5.67752393749879
C         7.16219396859252   15.21080022197756    4.65288537016474
H         7.46350009305654   15.77559921785380    3.79575606303598
N         7.73461799648046   14.02392864131936    5.00747209281844
C         8.85134324551537   13.31815085694725    4.54278104677495
C         9.17164396369525   12.22489214289564    5.36764295426904
C        10.32444588716498   11.52415720717292    5.05584771781852
H        10.65272156919227   10.71090502217642    5.68685414980778
C        11.10501749372871   11.85078146624016    3.94807148245086
C        10.72770008161684   12.91204377787604    3.13764955767186
H        11.32595799547035   13.16868524015701    2.27579767104724
C         9.60453429250289   13.66405729579131    3.43677880913406
H         9.33112717183404   14.50875932755888    2.82207774044052
C        12.33456551891469   11.04737146971762    3.64766325164789
H        12.06123070279439   10.04106729352714    3.32876042144192
H        12.95533023062245   10.95746226751086    4.53725162503911
H        12.91990830420277   11.51064630304240    2.85750858120924
C         6.58476245062878   10.20714157532005    6.04591193312081
C         4.42520019691024   11.08122157219877    7.20296721420630
H         4.23963412539463   11.78050982438226    6.38838313578783
H         4.14340707162084   11.55681062175262    8.14008667833042
H         3.77223534069870   10.21830240332414    7.05362272545925
C         5.85098663068083   10.62743763894631    7.22145493275758
C         6.66130927926468   10.39180362704314    8.33594538874950
C         6.31330306593729   10.57646918817716    9.77859885934991
H         6.15683067928957    9.60409958893784   10.24991472493742
H         5.40385971005299   11.16272310511501    9.89746187921763
H         7.11638092628410   11.07975284917501   10.31683407483700
C         7.88158920219097    9.74820118824135    7.88075694962734
C         7.78268243478446    9.54785759093946    6.49115496864720
C         8.65119280667056    8.68671561157085    5.63093531644396
H         9.60572992808803    8.48189028976681    6.11045540231865
H         8.84202067185447    9.15110864174230    4.66455747912072
H         8.15032080619928    7.73200474195671    5.45452028456580
C         8.89564747105366    9.15471332015336    8.80748952929694
H         8.51103401340211    8.22550670401653    9.23463221395109
H         9.12158240425321    9.83340039088771    9.62835835190992
H         9.82515788651562    8.93212588408254    8.28729224737760
C         5.99483350716886   10.06943839528950    4.67736676980312
H         5.29511099799566   10.87623113080793    4.46549177159883
H         5.45466999564845    9.12313675897179    4.59623380308100
H         6.77225090858558   10.08188015580060    3.91556152918392

