53
CSD_code = KENMAU | q = 0 | S = 0 | Stoichiometry = C21H25IIrN3O2 | MND = 8
Ir        7.80653811606044   -0.34512503069527    4.63571762422781
I         5.61470622462852    0.52132332581224    3.33465916603968
C         6.81675481553322   -3.29821221006336    3.05923673489370
H         5.91244901398695   -2.75877834044854    2.77799955328473
H         6.51889380330216   -4.30031435256776    3.37327337178242
H         7.44783844330132   -3.39231440308438    2.17719274128190
O         4.67804597595478    1.08222858917531    8.66603309250754
N         9.15715533474707    0.89578013316221    2.19715358495079
N         9.79246812609837    1.85894390371573    4.01069465048140
O         5.16267979396616    3.02365260139761    9.45006518917969
C         9.13532755146420   -1.77925561323020    5.60276560176478
C         7.90185959560706   -1.85722470382737    6.33899964159295
C         6.90073849597569   -2.27175518273087    5.44330002653753
C         7.53236867373496   -2.61184492188720    4.17840175961334
C         8.90203730145707   -2.35172836072980    4.29138477124080
C         9.98823231091266   -2.70585051875685    3.32353477111106
H        10.52126611208043   -3.58945976819312    3.68065385813941
H        10.71449327834148   -1.89923552514332    3.22268381169521
H         9.58761945129736   -2.93116403380850    2.33734625791904
C         5.47953082737802   -2.59752538121614    5.77403662290802
H         5.38131305190147   -3.66700495182608    5.97317094585365
H         4.81595090968453   -2.34911588564243    4.94728056103945
H         5.14293516227065   -2.05684568033178    6.65631839412892
C         7.75641825734155   -1.63009980540158    7.80950952953882
H         6.73495236263003   -1.36668661063293    8.07424256671948
H         8.41405165520273   -0.83454059254774    8.15713775888561
H         8.01899291920765   -2.54471475285252    8.34541122961298
C        10.48879718960307   -1.60261485375235    6.21670435753353
H        10.45350528575333   -0.89999656232712    7.04762311443064
H        11.21236964956837   -1.24485146082067    5.48537297824609
H        10.84825070955550   -2.55936036956771    6.60249036134992
C         8.99296494395136    0.87659736110616    3.53971553298494
C         8.50225423806440    0.04689374361973    1.23891528421099
H         9.21331983867961   -0.25442671475123    0.46991474385234
H         7.66729946505953    0.57309392014916    0.77336420822178
H         8.11227889663381   -0.83523810331214    1.73996090315145
C        10.03119998964666    1.88427585459918    1.84092986312850
H        10.29169017875788    2.07685547524195    0.82091845492016
C        10.43361685520538    2.48951385141772    2.98196148420945
H        11.11218756793627    3.30257197192124    3.13676829947932
C         9.99412775126974    2.16484655393592    5.40462403726436
H        10.48322598598397    3.13918160099215    5.47282224068829
H        10.67055050044449    1.41330608218452    5.83544932563584
C         8.71116166681777    2.16808852912085    6.20141023796434
C         7.71025057539160    1.22218553097653    5.94634208889889
C         6.59253145727277    1.25114561199335    6.77805990192396
H         5.76552170913305    0.57111230970651    6.62953271552649
C         6.49329492270231    2.15559116625666    7.82466060902245
C         7.48098480273847    3.10551318866732    8.05113236433838
H         7.37634636508625    3.80726023512694    8.86313830623338
C         8.58388842265643    3.10413967266207    7.22451939092210
H         9.37087121782626    3.82707885048781    7.38531590351282
N         5.36039225018337    2.08620462669823    8.70474947545799

