49
CSD_code = KENNUN | q = 1 | S = 0 | Stoichiometry = C19H25ClN2PPd(1+) | MND = 4
Pd       13.89638676502487    3.24224282488712    5.18845845989890
Cl       15.99881566108727    2.53508324461048    5.34371580329569
P        13.06111021804814    2.10185233117834    6.87956183855453
N        12.02967949918849    3.98259958239516    4.85030421917500
C        11.77793993225567    3.52063325679252    3.48514023901338
H        10.98805313953536    4.13066464344728    3.02240828811809
H        11.43200867563327    2.48321444338246    3.51236947159060
C        13.09534896815007    3.62443926686439    2.67750531776088
H        13.51817808374558    2.62572570122237    2.49112990426244
H        12.90715046884837    4.10283821984996    1.70318452618672
N        14.07637426918075    4.40493976803186    3.44503926181588
C        13.45905100501591    5.68082136649567    3.81479589679440
H        13.08319563513388    6.18965069076514    2.91380247658188
H        14.21767704672664    6.32209092884502    4.27336912611061
C        12.30970943797120    5.41945518916616    4.81613282428538
H        12.60258848834393    5.73824296561245    5.82484868179207
H        11.41093952634328    5.98244285957229    4.52418244397441
C        11.00254977462403    3.59750519167539    5.82643141504653
H        10.00186861122272    3.65730905226632    5.37920855491084
H        11.04675229210082    4.30834479821715    6.65784332762879
C        11.26451689584309    2.19283318099308    6.37996505151985
H        11.09667962310979    1.42460684932474    5.61819265650198
H        10.60308257965106    1.98276080271610    7.22318988715606
C        15.32112111494611    4.58113550744655    2.70722671690860
H        15.15784931735650    5.12995689947913    1.77240053824041
H        15.74911829427444    3.60355927791047    2.48282398496293
H        16.03564144077996    5.12489396729164    3.32483655434815
C        13.43105669925641    0.34512696099483    7.01977798726492
C        13.50602360688193   -0.37405691919410    8.20532464073750
H        13.33676848038543    0.11435311892715    9.15329717390097
C        13.82144337171279   -1.72174329802306    8.15595536894922
H        13.88449710819179   -2.28926313601526    9.07158360696521
C        14.06671980425964   -2.33945032552559    6.94036985902152
H        14.31789703730017   -3.38841571944528    6.91323225179172
C        14.01323385634934   -1.61399163731415    5.75809718751771
H        14.22872078208127   -2.09637393408732    4.81719953710058
C        13.70218895535082   -0.26995671584954    5.79640509176833
H        13.69675894472479    0.33647723646042    4.88691031444337
C        13.18234328791910    3.00712408638493    8.43640400620700
C        12.43737580975921    2.70538811473800    9.57265089383412
H        11.73853084349619    1.88060434049943    9.56357031438392
C        12.59592544017312    3.47374189110026   10.71245869273175
H        12.02594328752305    3.24158250319544   11.59898484630594
C        13.48446366213791    4.53828969203749   10.71870371493864
H        13.60585404245712    5.12894679156846   11.61341312767154
C        14.21715259137324    4.84886225004748    9.58273934452980
H        14.90548423991175    5.67989926231861    9.59458547651312
C        14.06761604333810    4.08609286794158    8.43888369464977
H        14.64891534127603    4.30201975879540    7.53458540233796

