50
CSD_code = KENNOH | q = 0 | S = 0 | Stoichiometry = C19H25Cl2N2PPd | MND = 4
Pd        4.89453673846882    7.71916950049502    4.13179918564003
Cl        3.76133438454323    9.06958531160783    5.54937683620453
Cl        2.97614923873242    7.07620205654586    3.17658947061115
P         6.07372100284400    6.43104629348311    2.77145499766801
N         6.84469843756202    8.20849767648357    5.02193660265941
N         7.89660380623560    9.59790695035813    7.34362927726823
C         6.73374239008779    7.67762942905759    6.38974729837468
H         6.71090297536621    6.58258943929247    6.35608096303876
H         5.78337421522770    8.04572565585193    6.79744052618907
C         7.86000137348098    8.15044186449592    7.31286851623442
H         7.65132309530673    7.79004146046824    8.32300549097706
H         8.83537842077646    7.72296713249781    7.00462910867558
C         8.08692776623120   10.13239050119065    6.01026519964691
H         9.06575450477296    9.83754658818906    5.58280853313753
H         8.06632935094058   11.22269164459445    6.07126487947611
C         6.93775044180042    9.67172173809816    5.11360706741852
H         5.99689808385180   10.02749486788260    5.55001364406291
H         7.04484677992045   10.08759341143193    4.10565734992333
C         7.97676464974866    7.63653381490347    4.27107107551338
H         8.87619431320118    7.57997179532801    4.89559913634105
H         8.18947240701438    8.30977767610743    3.43282735192943
C         7.66865252077959    6.25379777292034    3.69569484785233
H         7.52236218209673    5.51197985361137    4.48609323960210
H         8.48610271216026    5.91609889362342    3.05394060546584
C         8.86494708404559   10.10400705106224    8.28711779337148
H         8.63013995729025    9.71970077630898    9.27823979314542
H         8.80183767039671   11.19040114328055    8.31158567431271
H         9.89961586967651    9.81727760263829    8.03465784657799
C         5.59798030118334    4.73630467160261    2.35492221161015
C         5.70966180925170    4.15171943906089    1.10059537509613
H         6.12303432143707    4.71047113083227    0.27383790402034
C         5.26545973811605    2.85385391342014    0.91270669926814
H         5.34805451269711    2.39621607451984   -0.06213918246237
C         4.70559659938390    2.14680521790846    1.96351255030638
H         4.35682881215747    1.13700425720509    1.80644306522579
C         4.56835168610617    2.73921483485893    3.21017235546999
H         4.10615524378254    2.19517106044552    4.02022074692425
C         5.00549017316560    4.03429974076925    3.40363833907577
H         4.86375365593968    4.53749689858967    4.35841270372725
C         6.56092612283545    7.30711982904214    1.25934905756222
C         7.58648794029021    6.90514813322805    0.40894845522301
H         8.14131712409938    5.99986424827216    0.61533942416372
C         7.89763736361810    7.67171602466784   -0.69998650572008
H         8.69110710912026    7.35965987115332   -1.36334700574355
C         7.19572373930813    8.83838648172251   -0.96067964769365
H         7.44380058755325    9.43053247309935   -1.82889507938605
C         6.18126774225399    9.24862172690055   -0.10987462671545
H         5.63988474995609   10.16025821641512   -0.31284344377391
C         5.86415159492597    8.48637897856299    1.00003768530157
H         5.06516670024406    8.79226887592374    1.68422660718126

