124
CSD_code = KENNAT | q = 0 | S = 0 | Stoichiometry = C35H78N5OSi4Y | MND = 5
Y         8.50809879312804    5.17285767563721   -0.28906951061229
Si        5.98213926473317    6.61755942610158   -1.84065305681914
Si        8.61369143579660    8.13681787583318   -1.82052415346133
Si        7.60386620702882    2.45513162808872    1.52675832673962
Si        6.78894444260762    2.38421151049171   -1.33693273039619
O         8.12503316609433    6.32674202362596    1.29790216371505
N        10.82882447208536    5.18268679371860    1.01090179225178
N        11.94925374446084    3.35195929826670    4.13258803303122
N        10.58900387503374    4.51880580939356   -1.91667513690551
N         7.70549547055039    6.68406729451976   -1.68810001236479
N         7.66197266156635    3.14253637400439   -0.05641865678805
C         8.65099598740149    6.92721641441079    2.34443679035561
C        10.04861856441730    7.09369534141454    2.45102567985864
C        10.61006217845036    7.71875060166329    3.55520164966636
C         9.83007702724102    8.19201610286595    4.59555634707959
C         8.44951385186039    8.04133500790808    4.47317575546252
C         7.83655098613538    7.43774933371393    3.39234363236506
C         6.31830992058736    7.34062608422292    3.28299304496080
C         5.89101289681125    5.87271106906080    3.14167910346115
C         5.59417604670362    7.92122754247832    4.50368383195977
C         5.86668414270290    8.12751513376297    2.04476308331239
C        10.40598265389212    8.88387453910989    5.82235111847217
C         9.95387359419865   10.35089733886881    5.81983056030630
C         9.90128407663883    8.19292493454378    7.09713986263584
C        11.93713411135942    8.85195939290162    5.84749633979343
C        10.95528044077909    6.62866476332917    1.33774315265570
C        10.74655547057355    4.37110513087507    2.23854269599076
C        11.94828219394972    4.46194903572748    3.19098517876540
C        10.73596520715243    3.24874043693381    4.93144801247348
C        10.36243306337659    4.47580379503604    5.77096311297390
C        13.17830542953896    3.33018840979058    4.91291976982677
C        13.39497327135738    2.00010462366577    5.62754972298883
C        11.95996078389669    4.75003473250684    0.18382333335441
C        11.79152125242077    5.09837908258049   -1.29531393303143
C        10.59682288546823    3.03745272121717   -1.87804202893727
C        11.84155052348678    2.33034840472504   -2.42548857921135
C        10.53164807027591    5.01279055828549   -3.30806908970972
C         9.19818007997732    4.77100370429251   -3.99802050231746
C         8.34883277385371    9.03875601583483   -3.47917603902336
C         8.45290685600911    9.42873943753897   -0.42469542281978
C         5.05682745990952    8.28751318222649   -1.83915135524700
C         5.49938451689162    5.75840723732160   -3.47966785721576
C         4.89258855099489    2.58674715491630   -1.30174430898276
C         7.13724414924924    0.50964953989166   -1.47972370873077
C         5.93038643229774    1.72987739565227    2.08179446105682
C         8.88728070831080    1.04147927892874    1.71933268426471
H         7.83256008679103    8.42452462445960    5.26728817446804
H        11.68292790146129    7.83901155586043    3.57623255238748
H        11.34741004434863    4.57391318930400   -3.90055769831970
H        10.68829674042387    6.09303748625249   -3.27629419223391
H         9.72696106354002    2.69937603352386   -2.44153922006700
H        10.43563677273932    2.72073650031359   -0.84310050893142
H        11.72051549728545    6.18588971523188   -1.39475757063430
H        12.70016137261698    4.77801442126630   -1.82823376674691
H        12.07286769476991    3.66951105405068    0.29755544982581
H        12.89910614607376    5.22005770260014    0.51916397113224
H        10.62026634564211    3.32534140975199    1.94897978122430
H         9.84847735787009    4.68593630254355    2.76988591648521
H        12.87744959727891    4.38123785695308    2.61903018960691
H        11.94960722705122    5.43654067746359    3.70262192657612
H        10.72426796589643    7.20156718109483    0.42821987881243
H        11.99557717639060    6.84956342929493    1.62553895570290
H        10.86156197101863    2.38895186417233    5.59074388546851
H         9.91172161546336    3.01536716763448    4.25413595170729
H        13.22855485922936    4.15552302085559    5.64338557445924
H        14.00218322276716    3.47354493099423    4.20713669980059
H        14.42627042394448    1.93351970707477    5.96541717021079
H        13.19541242791110    1.17995742414930    4.94340593123676
H        12.75030662989379    1.89792052664841    6.49592158009397
H         9.48678985467290    4.24415359164842    6.37163437810445
H        10.12488782147759    5.33060322324772    5.14201072203011
H        11.17362095331660    4.74722037285995    6.44366682989697
H        12.29637570925012    9.32093542162277    6.76159291316314
H        12.35553883224143    9.39830474936095    5.00554259167296
H        12.30470715099978    7.82821283856574    5.82682486990085
H        10.33204992131724    8.66867517197970    7.97617100433063
H        10.18711723368143    7.14378300378429    7.09597176760896
H         8.82009880651049    8.24990513235338    7.17924900389524
H         8.87031930014619   10.42411770656943    5.84983442253018
H        10.30280115472866   10.84949508386183    4.91805559004210
H        10.35816998572894   10.87378944433447    6.68455731141567
H         4.51981993663853    7.82413439061296    4.35954255606218
H         5.81738780386726    8.97814414073783    4.63124535858060
H         5.85986327838240    7.38507078475660    5.41224914841134
H         6.25341483445807    5.28948169820415    3.98648344118598
H         6.28786484316561    5.44195965924354    2.22336999983208
H         4.80500394620397    5.80393096029968    3.11386802481242
H         4.78513269583086    8.07111958080726    1.93711883090308
H         6.32643998868433    7.71588194135870    1.14972240726766
H         6.15336015322014    9.17374651140665    2.13987987727445
H         7.48450879284853    9.91762021726071   -0.44959650994687
H         9.21053163599298   10.20239109647924   -0.51055197191224
H         8.56166866045880    8.96513166962724    0.55098755055565
H         3.98278201770266    8.13354729105538   -1.87105480734190
H         5.32442602064478    8.88769419721467   -2.70173390356066
H         5.27906373906476    8.86674210643706   -0.95002978337553
H         7.42409302206781    9.60358879519595   -3.48044623869864
H         8.30613988511137    8.33663260259953   -4.30441931531880
H         9.15644534320978    9.73591978891637   -3.67644745611608
H         5.84578041710575    4.73111886368625   -3.50964626713207
H         5.91445974172379    6.27791817306191   -4.33790376937301
H         4.42090891107120    5.74377075725531   -3.59626796430825
H        12.72672708977693    2.53319325184855   -1.82762368295825
H        12.04577470753562    2.60697420013776   -3.45629084652308
H        11.66209679978126    1.25871552065918   -2.40042094682377
H         8.20202441426494    0.30018493033363   -1.47198357240089
H         6.72750442364783    0.10537947559771   -2.39976253181027
H         6.69218758661416   -0.03863605722639   -0.65663630475871
H         4.43158132124887    1.95501014827879   -0.54930758387588
H         4.45755985180173    2.32350158210494   -2.26104643735621
H         4.61798168753981    3.61432064760507   -1.08761465339922
H         9.01486744672134    3.71662403403703   -4.18684652472191
H         9.20085419236610    5.28791761797165   -4.95498441951484
H         8.39398512006178    5.18251159277077   -3.38568357910907
H         9.82434127133401    1.26272497035097    1.21538698757167
H         8.50938660714526    0.11524630506650    1.30027875996849
H         9.11398384480622    0.85783235300760    2.76495767900265
H         5.97240814036142    1.39322808747196    3.11310480406723
H         5.64422922640494    0.87976628751722    1.47174289208680
H         5.14122425756509    2.47094657389861    2.00917921740293
H         5.40817111068743    5.82872363447761   -0.69834217421162
H        10.07466867315728    7.73502243671685   -1.82605652245195
H         7.28382341746669    2.97455367193374   -2.61891938979639
H         7.94351658660628    3.49366479962805    2.54244442774143

