44
CSD_code = KENQOL | q = 1 | S = 0 | Stoichiometry = C18H20IN4Ru(1+) | MND = 9
Ru        1.44582404489606    7.87529019271916    8.07063928813127
I         2.58855370297507    8.18970044557817    5.68762339045808
N         2.67799960591017    9.25588431249602    8.79019030141320
C         2.49771231827864   10.57621530543416    8.69790772984725
H         1.63127695756400   10.91771113239915    8.14218766855672
C         3.39702877589049   11.46474028247919    9.25594709526640
H         3.24908842420549   12.52816499857940    9.17127499577548
C         4.50343645715326   10.92363213133570    9.91289466313369
H         5.25115991828655   11.53902976870898   10.39101110345708
N         4.70483431197824    9.62241237062661    9.95922199530751
C         3.81620152616862    8.83554685677630    9.39526486321461
C         4.00616286539354    7.39399699093869    9.30073978374605
N         3.00057730452641    6.77391716069338    8.63423799394618
C         3.15885521104067    5.47139414793027    8.38234904923883
H         2.38895322908874    4.98652843692311    7.79217073736271
C         4.26955059978090    4.78256329933799    8.83117497303707
H         4.39385628724919    3.73434499938209    8.61745834848347
C         5.21920169584766    5.50587626895284    9.55470993407880
H         6.11312658451017    5.05024538918160    9.95449321499559
N         5.08038334685241    6.79860478444438    9.76807349646575
C        -0.21530983537380    6.23470317490892    8.29059056989460
H        -0.19128042072977    5.15132189616195    8.28362373994207
C        -0.00714177056649    6.91846467644906    9.51598102484279
H         0.17746297919410    6.34481235212870   10.41937126754127
C        -0.18886387877684    8.31326741109497    9.61229087014308
C        -0.55127559238628    9.02305461840205    8.43247988914390
H        -0.79147265455876   10.07941881969580    8.50055649099048
C        -0.67564974967415    8.35777166866092    7.21367317488574
H        -0.98305350248633    8.90691905489291    6.32787493384783
C        -0.52699066243320    6.93606732704815    7.11973633316709
C        -0.84674948186963    6.24747555233112    5.81641824604848
H        -0.66492598306559    6.95679863526050    5.00158093000113
C        -2.34072356695786    5.89446464218654    5.82983706264319
H        -2.95209446365834    6.78309327491716    5.97012271931391
H        -2.56208457881382    5.19085000754834    6.62979850650780
H        -2.61283226643166    5.43680735069157    4.88341051791052
C         0.00352111794615    5.00533181098749    5.55596175981360
H         1.06379026854399    5.24702652229430    5.61018915759082
H        -0.19969412358857    4.63814432630927    4.55428650501112
H        -0.22545128536890    4.20386941554785    6.25495931617040
C        -0.13891132547658    9.00997792425161   10.93596546115023
H         0.52098890003629    8.49672191544286   11.63337367588900
H        -1.14064057175089    9.01941005694792   11.36986484751949
H         0.18619928065191   10.04432829091131   10.83448237411303

