111
CSD_code = KENQAW | q = 0 | S = 0 | Stoichiometry = C44H62N2P2Zn | MND = 3
P         9.69170398010727   11.78904545643443    2.10560485551177
P        10.48581410408946   13.22649800270689    3.60419639137970
Zn        8.96743246801033   14.79691778137507    1.42335724103179
N         8.63585914792675   12.79429980192714    1.37108754429956
N        10.20124620775062   14.74286696753958    3.13716864998310
C         7.43825052299059   12.27922264887522    0.82648869919600
C         7.43624445684259   11.71681058432868   -0.46112865556588
C         6.24040458882740   11.28728730743451   -1.01380185570610
H         6.23548102505863   10.84313621532506   -1.99755290657133
C         5.04926302996356   11.41904010920754   -0.32611757926127
H         4.12343267560133   11.08811387831703   -0.77374587187287
C         5.05320877554603   11.96765764628408    0.94053131436622
H         4.12148517988071   12.06048894166811    1.47916596950113
C         6.23293251273256   12.38958447126198    1.53528283905183
C         6.19964079821665   12.95281085080020    2.93551191734275
H         7.23394970527058   13.11401309628576    3.26569145090849
C         5.48239416343566   14.30218943265861    2.95432932179942
H         6.02056392360328   15.02022109533801    2.33538565113168
H         5.42938530354107   14.68501611548820    3.97158547464348
H         4.46993375053809   14.20526837029085    2.56816643033438
C         5.53943854237895   11.97992116215916    3.91403997223289
H         4.47411528991249   11.89025400513411    3.71584624474189
H         5.66800484674389   12.33286041656143    4.93593506798363
H         5.98512778802536   10.99113516978514    3.82827380843512
C         8.73230204274774   11.54955425753478   -1.21734319443369
H         9.46269152114370   12.24265795556438   -0.78826699724374
C         9.25587457384326   10.12638457370062   -1.01213551713146
H         8.55421310463483    9.40099807504024   -1.41927196206237
H         9.37817485923855    9.92336427152393    0.05234324481940
H        10.21990555070336    9.99865471683624   -1.50132676553277
C         8.61026647814612   11.87003021869091   -2.70656014045501
H         8.04016413813632   11.10775484588735   -3.23193148312326
H         9.60140437522242   11.91408342541503   -3.15483189327109
H         8.12075903630377   12.83057967121880   -2.85337867159869
C        11.28937911978709   11.95759144936859    1.14772578575899
C        12.15951137455338   10.87233342728099    1.12517951762083
H        11.89407511987979    9.96958199209643    1.65884683168072
C        13.35037665760194   10.93640941771330    0.42425985653627
H        14.01916163413886   10.08728457268186    0.41708704456581
C        13.68072559915741   12.08511907581485   -0.27536121865089
H        14.60991727524224   12.13754375234143   -0.82398506675419
C        12.80955102990952   13.16249277426842   -0.28052835690619
H        13.05616436624852   14.05603330627176   -0.83624822494717
C        11.62161604225640   13.09577313049752    0.42426167437075
H        10.93609669590361   13.93862674956271    0.40695666668519
C         9.75510763146021   12.82625763638586    5.23719388263727
C         8.76332748562873   11.86192444181801    5.34121748502470
H         8.42980713897086   11.34881210745367    4.44862384759176
C         8.22131794649305   11.55021948658312    6.57526313616746
H         7.44992465398220   10.79797645287649    6.65127810859267
C         8.67502383087158   12.19741058064043    7.71238264300353
H         8.25672560331600   11.95228116860081    8.67752024167137
C         9.66946780362562   13.15798205063218    7.61400869088183
H        10.02823068736264   13.65771154181328    8.50270905108425
C        10.20766674009882   13.47655054997366    6.38033919203142
H        10.97621331331298   14.23355403697390    6.30048098258548
C        12.26093056303499   12.84598730896020    3.98158216125426
H        12.83689613231929   12.91721249731058    3.05628283090592
H        12.64176523141245   13.59979426988225    4.67595121646517
C        12.38189438642041   11.43920406728373    4.55740705207688
H        12.02782820324211   11.42617168665581    5.59072107244835
H        11.73812467349654   10.76464102885972    3.98395760452763
C        13.81953675680073   10.92912799520286    4.50344382373247
H        14.16378507534692   10.93788235079858    3.46637808849334
H        14.46304589432477   11.60406449603932    5.07306318906942
C        13.93619582358616    9.51792260094775    5.06529234412047
H        13.61192587603689    9.49184195867419    6.10336953508194
H        14.96542132761292    9.17062688638037    5.01775049400806
H        13.31465744495781    8.83014548447187    4.49631739182197
C        10.67219651648600   15.82245912010384    3.92863675533019
C        11.95873748434206   16.33922483548972    3.70687664376474
C        12.41971257060131   17.37474806084989    4.50613225087135
H        13.40843046506343   17.77514885778664    4.34190320343514
C        11.63067104949641   17.90756945630180    5.50650730635998
H        12.00913652203805   18.70172836101916    6.13329557220984
C        10.33957670275075   17.44589757482613    5.67229610460551
H         9.70913360815163   17.90160392767748    6.41994633278566
C         9.83949602064883   16.41351098160752    4.89194399254391
C        12.79173804449482   15.85941654694083    2.54192965901664
H        12.39624614042183   14.89480645972172    2.21249773389820
C        14.27225839004453   15.67998698660752    2.87566776235131
H        14.76691747724034   16.63959657647430    3.00437301161474
H        14.77060497356633   15.15290085904919    2.06395357319646
H        14.40052793015264   15.10248325758697    3.78864934517290
C        12.62146883360432   16.84674855954678    1.38365269544217
H        11.57000231221661   16.92015108208583    1.10991960653852
H        13.18826674344267   16.51501188039526    0.51591826332359
H        12.97115445981238   17.83655404076971    1.67007288790457
C         8.38240418543875   16.03028252350448    4.99640412841185
H         8.25450467380993   15.02450439978628    4.58107782796666
C         7.83867048439427   16.02575516137360    6.42408233029898
H         8.49340013240092   15.46815774555004    7.08864606231496
H         6.85716522582649   15.55559669942584    6.44012654864825
H         7.72918492033790   17.03739587495137    6.80751062563023
C         7.58648784146260   17.01785879035387    4.13624439196514
H         7.77600502640103   18.03802035071662    4.46519342288098
H         6.51971924512960   16.82197225777955    4.21061397168056
H         7.88876082585436   16.93170814474109    3.09240218771295
C         8.45475882067974   16.01115677498497   -0.16408549880187
C         7.08011205995892   15.58582111219242   -0.68797598307396
H         6.29729854773376   15.78801235195521    0.04015604205224
H         7.05608123713803   14.52368141609622   -0.92167711161696
H         6.84090633788551   16.14120369011832   -1.59881294289510
C         9.47382293753458   15.79012362004172   -1.28667038475920
H         9.18263981267286   16.36653701300765   -2.16902812583684
H         9.51906656933645   14.74205835686290   -1.57721069717308
H        10.47066641758005   16.11684472351850   -0.99374017571574
C         8.40877404131292   17.50734965023098    0.15565739131070
H         8.18608250267393   18.07202447679645   -0.75358448968173
H         9.35865205793304   17.86519956613805    0.54810025165035
H         7.63269624642356   17.73317400332188    0.88387035655779

