42
CSD_code = KENQUR | q = 1 | S = 0 | Stoichiometry = C20H16IN4Ru(1+) | MND = 9
Ru        8.87701000046803    4.36725010644763    2.00820692587771
I         6.57028435329930    3.12324432741509    2.45832831458341
N         9.84728020597746    2.69301455818209    2.43615310258003
C        10.09404996180211    1.70426513280509    1.57343522930490
H         9.64353209417241    1.78073263324158    0.59013416497744
C        10.86975887926686    0.61785757940634    1.93129228567530
H        11.06154926790989   -0.17851120887639    1.23233425731496
C        11.37723509004433    0.59686160728543    3.23091025173831
H        12.00595804870625   -0.20239906805426    3.59490468790113
N        11.09205395103460    1.55039573651711    4.09511068317536
C        10.33725982449653    2.54710631571189    3.69233978583615
C         9.88879247405255    3.60069593004967    4.59497698066492
N        10.17107660305935    3.59439523844071    5.87817000779945
C         9.63486032642248    4.52844016591204    6.63814813493372
H         9.89056716049291    4.49328340177674    7.68709083110406
C         8.76640943208025    5.48583439933416    6.11132873981591
H         8.28802392749029    6.22397393779194    6.73283921218840
C         8.52964835614904    5.44261887029444    4.74995681574200
H         7.84724766843163    6.13431948807036    4.26670238702007
N         9.11108830016021    4.52270699195797    3.97558296526102
C         9.22900253365680    4.53894555814149   -0.28606097892507
H         9.25245527208890    3.78800193522322   -1.06852394647529
C         8.03369094587549    5.20569960344338   -0.00017926229485
H         7.12979367497765    4.95291440145363   -0.54690332193979
C         8.00427438781303    6.28024855438648    0.92989241065546
H         7.08873626077785    6.84437666930157    1.07042031760156
C         9.18417449706007    6.65300196473690    1.57916874907961
H         9.20060052461871    7.52611284371120    2.22342110093579
C        10.38251930371329    5.93602653301881    1.35151333043053
H        11.30529310194858    6.28088655207077    1.80528329960865
C        10.42570949636927    4.87926581846058    0.40811156462856
C        11.68115646243812    4.16312624121660    0.13344501048974
C        12.55449603497008    3.84467454052229    1.17580943575413
H        12.31783860988923    4.13547677776376    2.19265142131813
C        13.71181428148979    3.13256885528285    0.92574964277257
H        14.37253463066862    2.88511583182815    1.74218310639888
C        14.02344271477187    2.74401055031154   -0.36771007648675
H        14.92994624366298    2.19281172820400   -0.56161808316018
C        13.17299241561359    3.07185646046354   -1.41124799876530
H        13.41885324056853    2.78370880000391   -2.42131024512211
C        12.00496219680818    3.76938419376131   -1.16536845444818
H        11.35972724471006    4.03949944297966   -1.98817278555183

