64
CSD_code = KENQUS | q = 0 | S = 0 | Stoichiometry = C34H21AuF5N2P | MND = 2
C         7.73831573573758    4.53462040553645   10.67954733790920
C         8.33128179336702    3.31935966166168   10.99256203443912
C         9.57912325023920    3.19617985764650   11.59039629274962
C        10.29563407279040    4.34449810294061   11.90245122982107
C         9.74813764263999    5.58659629584136   11.60747864502313
C         8.49585553143479    5.64989562704641   11.00894459265424
C         3.12096303013023    3.12138270633780    8.51185899298658
C         1.74683734082088    2.89611109707547    8.51865089798391
H         1.06715480201500    3.70836783209277    8.73904557157866
C         1.25574446731867    1.63336257362578    8.25552482060330
H         0.19012574585174    1.45862700585348    8.27982047610491
C         2.12071741443412    0.57229432268784    7.98501606306739
C         3.49601004069826    0.80643658526062    7.98631900811327
H         4.17732976129352   -0.00211142263509    7.76778881681060
C         3.99117052575164    2.06689149518873    8.24867196809369
H         5.05896937607409    2.24483116937519    8.26097100812746
C         0.45199512765088   -0.94754460917417    6.92041478848232
H        -0.05786894033548   -0.09730711611845    6.48418783392598
C         1.59431690073146   -0.76595253961394    7.70453046502104
C         2.21176711974508   -1.91798479862011    8.19536990520691
H         3.08844914070781   -1.83735159581982    8.82215472857310
C         1.67556503298305   -3.15316122215619    7.89673282700339
H         2.11354021467510   -4.06973630979118    8.25611189291002
C         0.52277874595986   -3.21703909986966    7.11046186005008
C        -0.08536318477580   -4.50921174550666    6.77298165572541
C        -1.23422439330121   -4.57421193340244    5.98289403190994
H        -1.67686880455529   -3.65927411229370    5.62465419740178
C        -1.76478088555092   -5.81592258739267    5.68506682276341
H        -2.65253444160647   -5.90212810626497    5.07478857187235
C        -1.13749216349834   -6.94848286228438    6.18210006033290
H        -1.51646869500152   -7.93656200317479    5.97228399605569
C        -0.00178177146266   -6.77743628630094    6.96176329197987
H         0.52442735798553   -7.62819464789512    7.37604382210844
C         2.58288085268583    5.61052485660742    9.77886269329934
C         1.96316250165710    6.77796357742526    9.35077946061515
H         2.19889938511615    7.19305134203690    8.38075990012107
C         1.04187085067774    7.40362659336395   10.17327671412869
H         0.55776822173602    8.30993972944106    9.84079192922722
C         0.74310728869184    6.87434340731236   11.41745204881803
H         0.02426425376550    7.36763545289997   12.05431932826273
C         1.36990965394061    5.71536373952758   11.85082894031480
H         1.14130201888212    5.30702340880898   12.82389661489796
C         2.29353981177843    5.08812445472774   11.03847337261418
H         2.79814235883665    4.18756300762960   11.36629916290202
C         3.82449512920116    5.56906428750795    7.20644103452558
C         2.94947866602037    5.20172503951169    6.19011604995445
H         2.25879406188209    4.38360147108560    6.33936432005321
C         2.97219219913860    5.88627453624762    4.98838554781672
H         2.29381990471924    5.60208967090044    4.19760414665646
C         3.86135261874375    6.93140128976263    4.79672405023002
H         3.87444832795297    7.46054058950939    3.85574979612060
C         4.73748641689902    7.29506751896526    5.80683269337342
H         5.43445194828134    8.10541714853078    5.65503903646523
C         4.72483801267647    6.61237354172498    7.00882384654433
H         5.41070728749993    6.87856460475295    7.80339520082249
F         7.66223038363322    2.18128290122585   10.69912344006675
F        10.09691171077212    1.98864022628813   11.86782595733787
F        11.50209386217662    4.25488409133421   12.48030381723155
F        10.43106794972367    6.70457668081012   11.90192837300041
F         7.99538281577500    6.87460780318243   10.73231402050788
P         3.85972911901166    4.74610863781485    8.82384300719293
Au        5.89435356183790    4.65683461995638    9.80693925037852
N        -0.06615941347386   -2.12078115750240    6.63400645442182
N         0.51265134879723   -5.59947481125410    7.25131128472367

