51
CSD_code = KENQOM | q = 0 | S = 0 | Stoichiometry = C27H20AuN3 | MND = 2
C        16.67454335878453    8.52758485113779   30.09823643250605
C        15.70759069387834    8.52244551301551   29.36715918927102
C        14.57875054313971    8.50951414556846   28.51625984278549
C        14.68007612076153    8.03370175049837   27.20617429673169
H        15.63773364634160    7.68592096612031   26.84431573248582
C        13.57437538074427    8.00641781137762   26.38459339142620
H        13.67214102903723    7.65029647382024   25.36836857096969
C        12.33533042576485    8.46281334238766   26.83664980123381
C        12.23853728045738    8.94720441896823   28.14201278879481
H        11.28159682712501    9.28582020792112   28.51379015626280
C        13.33864825015573    8.96586721718746   28.97138988768650
H        13.25162547423037    9.33183256771002   29.98501779404108
C        10.22262259991297    9.46682306741349   25.96240456009819
H        10.35788214967029   10.33111236336047   26.60119641368759
C        11.16335026503407    8.43200162554701   25.96101440961358
C        10.92574043576049    7.37358252553911   25.08144699423304
H        11.60904102910527    6.53648411606855   25.04648630211775
C         9.80264495625762    7.39225791835395   24.28078019829943
H         9.57721533688720    6.59389323239588   23.59250764775529
C         8.92574937390018    8.47476936116525   24.37272414437454
C         7.71312585199214    8.53527091801776   23.54999247575731
C         6.83826724767095    9.61980918004949   23.64964783090112
H         7.06859046544226   10.41390749088893   24.34091017104472
C         5.70669692162648    9.63640888685295   22.85703154113236
H         5.00949956394284   10.46091780883825   22.91039878674163
C         5.48023693520577    8.57632092622785   21.99093354633380
H         4.60940107427553    8.54861717404130   21.35416363552713
C         6.40906868718151    7.54630531360045   21.96517472083012
H         6.28041339050096    6.69534461686536   21.30737082163632
C        19.67358501236270    8.46303616611231   32.42921326277703
C        21.58013381713344    8.21627966280133   34.05957068981171
C        22.84483830753328    8.70835461286008   33.71031660980672
C        23.87208653823604    8.55839224801166   34.62775425466078
H        24.85595046088632    8.92905783749860   34.38259870160277
C        23.64943539335219    7.94161158946545   35.84732398376725
H        24.46203687906211    7.83361628871525   36.54936691729709
C        22.39182838397611    7.46210848579404   36.17276551045190
H        22.22758964974865    6.98236089672258   37.12584832828266
C        21.33312109457378    7.58878624512224   35.28826124327821
C        19.96352865472645    7.08078655388202   35.61028336091370
H        19.94539477199316    6.62593294701944   36.59660370982468
H        19.23743875980754    7.89375783043812   35.58641551842449
H        19.64756168744360    6.33854568869631   34.87680680324551
C        23.05337052107808    9.37004700227080   32.38506141809590
H        22.40940185583986   10.24446998002999   32.28798855706244
H        22.80381381811492    8.68765924914244   31.57222787894418
H        24.08707329318676    9.68424398791513   32.27180578413028
Au       18.19947316798631    8.51975329788988   31.26590161195702
N         9.14844076387357    9.49249171384696   25.20504235913564
N         7.49177041450005    7.51922315232083   22.71664796028338
N        20.55873143979702    8.34943877250408   33.17924345196909

