41
CSD_code = KENRIG | q = 1 | S = 0 | Stoichiometry = C17H16ClN4O2Ru(1+) | MND = 9
Ru        1.08827527355191    2.62707976739830    2.67151979618394
Cl        0.84278167061021    1.34970988551432    4.59889972476221
N        -0.07153211684546    3.91730540593202    3.64276194609906
C        -1.40360170673712    3.96839353598028    3.57465710121526
H        -1.88916907787574    3.29920102978527    2.87413990653637
C        -2.13420859167407    4.82439150173036    4.37842057035739
H        -3.20935325425971    4.85689640972338    4.32017971370252
C        -1.42030568412046    5.62429714319216    5.27131034457110
H        -1.90403722068325    6.32286895437205    5.93856821088367
N        -0.10738307518435    5.55249590029409    5.35704800322105
C         0.52388899686692    4.71265612379973    4.56783617655991
C         1.96888331722898    4.52391833295642    4.64223400793146
N         2.71224545598936    5.18281591953250    5.50268088013201
C         4.00062001214906    4.90966259910132    5.55132773876219
H         4.57881475138222    5.46961057895566    6.27210333550135
C         4.56838981547710    3.93638742236039    4.72908682513087
H         5.61465572411325    3.68620185736598    4.78462149811798
C         3.72800370034195    3.28727907044353    3.84187122584198
H         4.09032171470230    2.49943269756500    3.19071377431698
N         2.43038393620849    3.59111518017437    3.77218162524337
C         2.45025609190336    2.28727415394930    0.84873108513614
H         3.49418282955284    2.52110382232398    0.66744272813948
C         1.44564683241318    3.19053413694303    0.44590108927606
H         1.71264720144742    4.12132813803751   -0.04057297219112
C         0.09128923230924    2.84030799429745    0.61624900313124
H        -0.68112209433313    3.51339039785436    0.25773746283612
C        -0.26619609176109    1.55436925594540    1.09432647956338
H        -1.30462740055268    1.24382070677498    1.10305652305406
C         0.73674490076504    0.65295829642914    1.46614722746492
H         0.49884562630351   -0.35779918868282    1.78582903344998
C         2.10474133261304    1.01800510041704    1.36559631387258
O         2.89168239645343   -1.18985073158241    1.75701252734502
C         3.13986106732011   -0.01788510990328    1.70524005012582
O         4.32692810865410    0.54040140765297    1.94381275227359
C         5.40966003184545   -0.35762597067191    2.25694535960513
H         6.13074809914742    0.25687909538831    2.79859416475292
H         5.02616803157307   -1.14843884895214    2.90758520645972
C         6.02116833903798   -0.95188789564823    0.99945076676836
H         6.86322706241754   -1.57878014038214    1.27606808092219
H         6.37126359642655   -0.16580113743822    0.33423897011030
H         5.29041116523882   -1.56392279891522    0.47604574282680

