91
CSD_code = KENTAA | q = 0 | S = 0 | Stoichiometry = C36H48N6Pd | MND = 4
Pd       11.64963129997471    2.98546628681683    4.12573224753055
N        14.41868472552446    1.50190285501142    4.92507116759879
N        13.68665754634121    2.75462647980056    6.50940999930739
N        10.88757426394361    1.04524383501541    3.44265843002494
N        11.91605783317956    4.84457380327040    4.81237085874860
N        12.59803982535635    5.61684004594108    4.26355491271942
N        13.23642771151706    6.47222283444670    3.85833867434958
C        13.39667098263560    2.33754092533969    5.25451998365391
C        15.30858498557672    1.38871914301064    5.96832990873337
H        16.19881668219213    0.80070657100108    5.90385628847155
C        14.84250567325236    2.17023119763001    6.96351737257685
H        15.22445014235687    2.34637383553384    7.94695671305319
C        14.68313810762491    0.94436885034023    3.64505674173351
C        14.83934917082060   -0.44352070060996    3.50427236119451
C        15.14031400545775   -0.95085610554211    2.24700752385048
H        15.26488703082207   -2.01432733890054    2.11955676672218
C        15.28982823425400   -0.11634809818913    1.15701206607863
H        15.52187843702588   -0.53045294172334    0.18738807452567
C        15.15892014189114    1.24788490227268    1.31538187694605
H        15.30083304318266    1.89455465334918    0.46415474889620
C        14.86135929477898    1.80782446598181    2.55299037953112
C        14.72639724332148   -1.41104242811735    4.66418860007045
H        14.30897144551656   -0.89063753740307    5.53288810335098
C        16.11461763553729   -1.94393318150723    5.03790330420508
H        16.04185979005863   -2.59894952535051    5.90318533889106
H        16.80595401243419   -1.13865211118124    5.27384784636443
H        16.53621072946732   -2.51020429933211    4.21082313747841
C        13.81263786824925   -2.59874720494738    4.33966763019789
H        13.56917582377854   -3.13504019002145    5.25414024200451
H        14.30355187487793   -3.29563772878326    3.66563364525921
H        12.88643025382349   -2.27381448389688    3.87404095988472
C        14.79926658301272    3.31427085872614    2.66149641688057
H        14.54545724617264    3.61055622556146    3.68570640330241
C        13.71241167660627    3.88419216007508    1.74369809648643
H        13.70246301897864    4.96901006548003    1.82848597165509
H        12.72289095776231    3.50137607323413    2.05082986330110
H        13.88552920866772    3.62008782342049    0.70333048653489
C        16.16414355702629    3.92752668950310    2.33703449006622
H        16.12051588840864    5.00187472486112    2.49673562856372
H        16.44501012653113    3.74354236599725    1.30300060959795
H        16.93676543650429    3.51205177588901    2.98220378717262
C        13.04880462886768    3.80497199997122    7.23109996796427
C        11.75253896401220    3.63411022604768    7.72264662631551
C        11.17102289218863    4.67698677049939    8.43105914472445
H        10.16911594397508    4.56792881547695    8.81597625654962
C        11.85579716642220    5.85372810559615    8.65197012172836
H        11.38724734988907    6.65912364140941    9.19764802287697
C        13.14481803573250    5.99861214436606    8.17993347796341
H        13.67466914394888    6.91910804407481    8.36615438280787
C        13.76972583042314    4.98608179881298    7.46581769265786
C        10.98227377882922    2.34742962485400    7.53767595111859
H        11.58701186110731    1.64804937639600    6.94713664400866
C         9.68483773544718    2.61989265687905    6.77068239257327
H         9.12671427256593    1.69394692830837    6.63208542724815
H         9.92877623687809    3.06885743038880    5.79168872140155
H         9.04986515044028    3.31476994551129    7.31371819018319
C        10.69816430098658    1.69462494446657    8.89379756342180
H        10.18969774374352    0.74226026067456    8.75468728058832
H        10.06580644382596    2.33167103526775    9.50643841400093
H        11.62535956326048    1.51380601930282    9.43463395075648
C        15.19984580674703    5.19376462612836    7.01388786209498
H        15.49525212048930    4.38425723013292    6.33987231347477
C        16.12944335321409    5.16991852111846    8.23425691193271
H        17.16690831903797    5.24201803351683    7.91500839453557
H        16.01036193175427    4.25608634981026    8.81305111825178
H        15.91277506450191    6.01000037239380    8.88947091619759
C        15.39649910547279    6.50594275236045    6.25175362890030
H        16.41485061098940    6.55213412729107    5.87049454225534
H        15.23982454899067    7.36653251761139    6.89594977332768
H        14.71179169209814    6.57962324865840    5.40923201989513
C        10.10664380744959    3.63314479521557    2.98778163281037
C         9.91214886404837    4.87580319996607    2.39167603302629
H        10.58510007230217    5.69857386665752    2.59948464469136
C         8.85061336083658    5.09904033375251    1.52586888234439
H         8.72053735184004    6.07613079747358    1.08155576707547
C         7.96297407967524    4.08208916188835    1.22629039802997
H         7.13751768692591    4.25673716293257    0.55078243768928
C         8.14396700537776    2.83211434128575    1.79198070839765
H         7.46227814201569    2.02373961900505    1.55846495943104
C         9.20165819493227    2.61452646263430    2.66063064692765
C         9.43801470998556    1.27095035518657    3.29744605344771
H         8.98373463901206    0.45566487451040    2.70994231408536
H         8.98214663064380    1.25926895118324    4.29420946923569
C        11.43572242960044    0.71495322010483    2.12890678741504
H        11.20616302442005    1.51555157378700    1.42413484562979
H        10.99540818421765   -0.21913984711695    1.74710159599242
H        12.51594683939576    0.58877997152906    2.18725087625584
C        11.11677521503706   -0.06493049638775    4.35626757105631
H        12.18565455758354   -0.23494231720859    4.46675696924419
H        10.64933976055098   -0.98918098367522    3.98252589638881
H        10.69368633390366    0.16348183794815    5.33463614352802

