92
CSD_code = KENTEE | q = 0 | S = 0 | Stoichiometry = C39H46N6Pd | MND = 4
Pd        1.24152871951279    9.33480279651150   31.50929052957103
N        -1.65261935401669    8.08612267851809   31.56679653776022
N        -0.57146587726439    7.58007055477468   33.35231321914446
N         0.43030311436260   11.08480198153395   30.84028515544243
N         2.23541142984021    7.70676419458582   32.07336759704383
N         2.64421539206728    6.91215749250401   31.31827130538485
N         3.07495176076257    6.03719523018925   30.72627277603880
C        -0.50238220205040    8.34088519133006   32.23744935389426
C        -2.42948315487826    7.18822316880649   32.25765391962326
H        -3.36821447933264    6.83167885511037   31.88801368857760
C        -1.74923869269553    6.87464898365500   33.38264131048808
H        -2.01803690743981    6.23615639852864   34.19752780367581
C        -1.99910212588394    8.73516140370059   30.35294041775953
C        -3.11470076798654    9.58251458667239   30.31609340895033
C        -3.35739791556939   10.29174571626019   29.14754159199367
H        -4.21355549691039   10.94535107179051   29.08745043937268
C        -2.51553759673554   10.17912871566737   28.05868741915506
H        -2.70638845653302   10.76009128668427   27.16857689588550
C        -1.45423670526247    9.29663954759175   28.09244219599275
H        -0.83525849657250    9.18047812263162   27.21728967232230
C        -1.18084654803539    8.54598743408050   29.22987100514809
C        -4.09241844872041    9.68671137308707   31.46847951888114
H        -3.66852144872924    9.20186904861736   32.35321241869916
C        -5.38045753789212    8.94717147070271   31.08677618743509
H        -6.06672695357968    8.92301333878159   31.93048164960490
H        -5.16908961347893    7.92405619111195   30.78295475253550
H        -5.87201262476958    9.44748574852530   30.25600580878356
C        -4.42334416459611   11.12666605895444   31.86403717434456
H        -5.13794881115378   11.12020975457377   32.68475431510823
H        -4.86581105409428   11.67685538146596   31.03832880662704
H        -3.53279841803643   11.65376373620069   32.19585882789408
C        -0.14217040596317    7.44487599462961   29.16967409324659
H         0.10911504648316    7.10677767557357   30.18297497877190
C         1.16270803138791    7.88061431563596   28.49914673155167
H         1.90176527554871    7.08813960745701   28.60258164215167
H         1.55541184762315    8.78313817206686   28.98513888829067
H         1.02555913852946    8.08058388497443   27.43907981102324
C        -0.75499808899029    6.25364086777028   28.42337496460996
H        -0.04038694268440    5.43506522244858   28.39338579152184
H        -1.01083443032804    6.53146118778107   27.40295118517671
H        -1.65934450905876    5.90674795848129   28.92088469572987
C         0.44581637795649    7.46791156424777   34.33911404967110
C         0.98540401790977    6.20532993744310   34.62487670676855
C         1.95826906016062    6.11644908496975   35.61075826125015
H         2.38413574958025    5.15486091307429   35.84973230910024
C         2.39992232404697    7.23616660745432   36.28591619390626
H         3.16482900153576    7.14462296166200   37.04271293133216
C         1.86221370255590    8.47123282563631   35.98982362330651
H         2.21260200110713    9.34132378213749   36.52278871906859
C         0.87759358315298    8.61285604685933   35.02035211864023
C         0.54977493252478    4.93649747742631   33.92407806612880
H        -0.10524796200449    5.18621296853422   33.08453552815219
C         1.73503740338634    4.15964122227780   33.34695197256037
H         1.36879451889843    3.29244145084552   32.80117021645897
H         2.40247831398598    3.80914980949065   34.12908870153962
H         2.30540359316363    4.77636567270568   32.65920940254312
C        -0.22559842484266    4.04344483047266   34.90051409422036
H        -0.61714730954741    3.17172980671257   34.38069023405036
H        -1.05816789478073    4.57636210159854   35.35650891323925
H         0.42707067626225    3.70118396821531   35.69980647319354
C         0.30002370922191    9.99014133298350   34.77568855410274
H        -0.45436890007588    9.93665809068038   33.98229682577914
C         1.40238681183318   10.94739831982778   34.30601736540341
H         0.97031895781857   11.90225474289439   34.00699937254110
H         1.93766190019276   10.50185677166658   33.44622240680444
H         2.12241543322045   11.13163883037941   35.09956865064552
C        -0.39048398305553   10.51804906299779   36.03666774533707
H        -1.17446245075260    9.83507015387772   36.35912172505464
H        -0.83921812209390   11.48923260032961   35.83732369845988
H         0.31770276259522   10.63171808431551   36.85310342436408
C        -0.77712947375394   11.56385449785498   31.10286277867901
H        -1.32854574107909   11.06640317680417   31.89137193683912
C        -1.32750073914876   12.64279199724402   30.43732767170670
H        -2.31077090286338   13.00238173077020   30.69248678969170
C        -0.58649816869979   13.24029323633648   29.42718702410620
H        -0.99368484738403   14.06377556384037   28.85934561636819
C         0.68783926707033   12.77810027169352   29.17975074830836
H         1.29333195605354   13.24055473251387   28.41735679187067
C         1.20087296471205   11.70918842833673   29.92173214044912
C         2.57208626050809   11.23210210408696   29.84092836770881
C         3.55743393838653   11.83895427735589   29.05898047261004
H         3.31440916578461   12.66762247029178   28.40864424152711
C         4.85733942310354   11.38469832598799   29.10958654735683
H         5.61508564215172   11.85558090697209   28.49837319291370
C         5.20494053535593   10.32764222265543   29.94514042538372
C         4.21689060379493    9.72095475998466   30.71413524580233
H         4.50636839338926    8.89692285000999   31.35592403128234
C         2.89227312100991   10.14124487577961   30.68308659562062
C         6.62346512309006    9.85462746350222   30.02974937911908
H         6.65999476061012    8.77748220514695   30.17738972973551
H         7.12189917460136   10.32638988140328   30.87796314132051
H         7.17539823240125   10.10968059978897   29.12748036267398

