57
CSD_code = KENWOP | q = 0 | S = 0 | Stoichiometry = C25H26F3NbO2 | MND = 10
Nb        3.84545716168625   11.12443284641824    3.30706080150682
F         2.09327697533821   10.47806165871403    2.85513717988416
F         4.42592151621685   11.05873427552844    1.49818162290754
F         5.16552934599677   12.42500291869229    3.79072435876583
C         5.86355019185158    9.70451108324903    3.80473451475849
C         5.18572867904236    8.83880653723186    2.90098013573397
C         3.94474841022243    8.48816682631674    3.48006060886341
C         3.85802499933474    9.11167684346563    4.76337786918708
C         5.06340561751784    9.84570692501992    4.97943693823519
C         7.26437119039061   10.20638425386113    3.63780888014266
C         5.75467656605620    8.36861257443230    1.60068174791423
C         2.92182105366126    7.53826756587346    2.94268617424253
C         2.79018773631899    8.81614429235342    5.77444539587258
C         5.54924816776409   10.42894903936939    6.27513211120030
O         2.93880443715659   12.91974694945462    2.48820563227307
C         1.95005411581399   13.56731969274841    2.91388818436890
C         1.38313128886961   13.42007008080942    4.19812615660379
C         1.90575979291277   12.56067478717921    5.15852793694574
O         2.89402380783381   11.78160511518250    4.96908795137625
C         1.40557956377039   14.60377187875101    1.99673921853494
C         2.26483368664019   15.13777319074592    1.03593744306051
C         1.81488359279426   16.09884094406998    0.15171944835481
C         0.49800405232551   16.52720522291056    0.20545654697787
C        -0.36721825416144   15.98579926772842    1.14263391302546
C         0.08037969559391   15.03101047926492    2.03734089895483
C         1.32395094318398   12.56379839196220    6.52720786246331
C        -0.04443762785510   12.68965191258319    6.74895804045522
C        -0.54292625895572   12.65908151394586    8.03871952457817
C         0.31523558001636   12.51146900436690    9.11654265653424
C         1.67825256669970   12.38411646951189    8.90283242553867
C         2.17947973047160   12.40219433015881    7.61509220574183
H         7.97875275228125    9.46600455109444    4.00544354927560
H         7.47292855609406   10.40212251983007    2.58725942952153
H         7.40491630323588   11.13046907555979    4.19522200462472
H         6.76635851590937    7.99082382233831    1.74949507041604
H         5.14508971436928    7.57988769390825    1.16718493164443
H         5.79906613727844    9.19495514130925    0.88947308578332
H         2.80101046434203    6.69226628413658    3.62124735970683
H         1.95805109655838    8.03857110523443    2.84627086679577
H         3.20814771478332    7.16659290602803    1.96243027291197
H         3.00875899056152    7.87693963813530    6.28804110793942
H         2.72028475819586    9.60908676212948    6.51775676407817
H         1.82230688264911    8.72212120516234    5.28296904086018
H         6.39353138140796    9.84614016266493    6.64858056543913
H         5.88185649221128   11.45823428793149    6.13310041977820
H         4.76206582047002   10.41348283169397    7.02580527837429
H         0.57436718777003   14.07138533843286    4.48368035368712
H         3.28529134938378   14.78392108151722    1.00420762485504
H         2.48844941043796   16.51213802896809   -0.58407346241886
H         0.14290576453020   17.27605043209897   -0.48706269138314
H        -1.39788377925640   16.30749179252098    1.17355650909707
H        -0.61080816952877   14.59841439664672    2.74402605688981
H        -0.71825033009668   12.78264701333034    5.91108251159390
H        -1.60622086495894   12.74850116291754    8.20509366567089
H        -0.07856017591520   12.49271791120310   10.12183353841988
H         2.34918573249082   12.26930697174462    9.74136768031127
H         3.24095997027828   12.31364101156297    7.43244408112249

