67
CSD_code = KENWUX | q = 0 | S = 0 | Stoichiometry = C30H30Cl2N4Zn | MND = 4
Zn        1.46794150412390    2.57101147619663    4.34142496311894
Cl        1.49102332777775    2.12377236611607    6.53040953570423
Cl        3.04030064855717    2.78185202360081    2.85567717219214
N        -0.17345877667036    1.42573786219133    3.75119993519128
C        -1.28457009906751    2.00281094980996    4.04805768660890
N        -0.10850595344326    4.01078745036832    4.40833964776396
C        -1.18651606626658    3.35421276707156    4.66579777696279
N        -2.53478321252424    1.46909277077331    3.85542583498056
N        -2.25468600946441    3.78600692910245    5.40609915855056
C         0.81091963444165   -3.08263621165429    0.43952900660895
H        -0.03355631600584   -3.31791977786001   -0.20358091644882
H         1.06379418429073   -3.96034262637148    1.03030622591874
H         1.66682101353611   -2.85013430829651   -0.19450806829644
C        -0.02451645498739    0.29058699208400    2.96153237286989
C         1.00362349819861   -0.59650276826268    3.28077307270715
H         1.59380045176716   -0.41349254283509    4.16825773789637
C         1.25186634554558   -1.68902678646023    2.47801759488822
H         2.04744048181917   -2.37132718389137    2.73829506767873
C         0.50549364781206   -1.91541858841138    1.32481255221356
C        -0.49960107887011   -1.01266794574902    0.99861862772424
H        -1.07380921046452   -1.15847513265457    0.09480901045687
C        -0.77464641328685    0.07430793204851    1.80415231233337
H        -1.53667265330994    0.78319025913860    1.51449387461666
C         1.81645628135577    8.76921807421767    6.85087791625130
H         1.74870847698230    9.61773444352261    6.17378039471568
H         2.86828256323017    8.61892022308276    7.09589950625630
H         1.28730847288238    9.00452610436263    7.77133919986692
C         0.27505857021096    5.20002032264659    5.03345123072691
C         0.15745804439379    5.39434511171027    6.41106663204459
H        -0.26722686664153    4.61729962122109    7.02841226533858
C         0.65886437943213    6.54470379017442    6.98554386534930
H         0.58546365153559    6.67496410880286    8.05560402612706
C         1.26346157071379    7.53177884004556    6.21526758275594
C         1.38129511565311    7.32518098355406    4.84431572707442
H         1.86501420831106    8.07296444213975    4.23290744036428
C         0.90903260818432    6.16983191493558    4.25715475817057
H         1.02308375094157    5.99910078768689    3.19719490498145
C        -2.77733700358473    0.06964100467110    4.13199932673535
H        -1.83643774064883   -0.43087006027313    4.34299156350407
H        -3.25648712986012   -0.41598408859074    3.27995905090719
H        -3.41477013854524   -0.02767612514949    5.01470850980665
C        -3.59251754420740    2.27568182507890    3.42595940026964
C        -4.91887965918587    1.96103527370759    3.71418145934018
H        -5.16001368904836    1.09602530282784    4.30946644815911
C        -5.94014596940728    2.77003712159385    3.24927878624565
H        -6.96280320024405    2.51661956755938    3.48519143639400
C        -5.66259416696491    3.89663880840808    2.49477855620506
H        -6.46401028564091    4.52503418020573    2.13830348170200
C        -4.34621422772575    4.20295939669256    2.18837037689276
H        -4.11680190740151    5.06730093169013    1.58347841351137
C        -3.31978799047584    3.39490685906306    2.63619499150105
H        -2.29732119953349    3.62099988318990    2.36886122908300
C        -2.69742720253072    5.16131280713064    5.35606167763608
H        -2.00530754658460    5.75155279483325    4.76162179071085
H        -2.75479884500812    5.58587894490480    6.35993798822320
H        -3.68184569319644    5.21566362860424    4.88293598700088
C        -2.91384519498613    2.88642886618197    6.25761142937163
C        -2.17974099463838    1.86175752703460    6.85772233650582
H        -1.11436236206261    1.78930264066730    6.68826255427705
C        -2.80676781489974    0.96328460457726    7.69949222169393
H        -2.22686295820599    0.17674998608139    8.15743888811151
C        -4.16012635008428    1.08451114448538    7.97345046051543
H        -4.64555391384658    0.38529335623988    8.63712071578702
C        -4.88130016131348    2.12053544438392    7.40522593937679
H        -5.93306676830445    2.23157281303846    7.62371493544292
C        -4.26837384361669    3.02033011320629    6.55144162288309
H        -4.84956181895302    3.81526077380382    6.11248278994406

