52
CSD_code = KENXAF | q = 0 | S = 0 | Stoichiometry = C21H26IIrN2O | MND = 8
Ir        1.19001835400879    7.97663644569442    8.15866944319232
I         1.32223834801429    6.11062643659293   10.06747134408294
O         2.00388925892621    4.34880449326279    4.23380220120402
N        -1.50594735808444    7.19980359166081    7.36255445272737
N        -1.75975108807741    8.41285367058177    9.12778302988770
C        -0.82484423955080    7.92438465885399    8.28644786805056
C         0.65816681661094    6.61055228397361    6.71944770528604
C         1.60555196587351   10.25212527873747    8.38552234218498
C         3.33239463686569    8.71974816036790    8.34180480099764
C         1.51665534900507    5.85486758892643    5.94616291978700
H         2.58284099446522    5.86590067866085    6.10791410290654
C         1.04160281327015    5.01823434473109    4.92999266800552
C         2.53137649279505    9.58232060855917    9.19300621585684
C         2.91807861375099    8.90492283619079    7.00992213518918
C         4.55938282562585    8.00355415738032    8.81074071550697
H         4.85985262453903    7.23121332374090    8.10559374915008
H         4.39348471874950    7.53248044443124    9.77815867770466
H         5.38529657352774    8.71095436984390    8.91716423142016
C         3.62172683842207    8.45552473933858    5.77007791329939
H         4.20955747705445    9.28486452488706    5.36940758381641
H         2.91701392329170    8.13971580237400    5.00273738876859
H         4.30071881901082    7.63103664360169    5.97507897538277
C        -1.50119378041024    9.14862681238215   10.33332660329426
H        -0.42741329981280    9.16576186954836   10.50696838780165
H        -1.98303258857038    8.65603564369725   11.17862977868659
H        -1.87638407549141   10.17094296357494   10.25499840958181
C        -2.84662536097790    7.24619947554920    7.61164637251257
H        -3.57399320260738    6.74265257299859    7.01018748929631
C         2.82198354141719    9.81554085798513   10.64163177989907
H         3.76688774754154   10.35206546826999   10.74881832333055
H         2.91276285866854    8.87337904117285   11.18175233624349
H         2.03984064274250   10.40585158554471   11.11575731420104
C         0.71032550556107   11.38986231048117    8.76473611348076
H         0.59404373670603   11.46578450124468    9.84372231001326
H        -0.27659878347180   11.28905319864755    8.31441484733209
H         1.14397267847944   12.32598586175450    8.40592361438967
C         1.75980614572040    9.75693690770360    7.03395321737984
C        -0.32352426147994    4.92178424145152    4.68829508066470
H        -0.71185208966344    4.28235882854946    3.91225144968878
C        -1.21051960205108    5.64325899043608    5.47168306599727
H        -2.27286660678057    5.55051319776697    5.30215192645252
C        -3.00527392161367    8.00984378940932    8.72076659180840
H        -3.89317347271324    8.29002892920095    9.24911681957454
C         1.12783269858864   10.37110438379899    5.82452812132172
H         1.71001551908480   11.23569436052955    5.49676020473821
H         0.11419313289978   10.70723059820416    6.03608377734257
H         1.08798016147188    9.65859426124891    5.00268800727714
C         1.60568102887042    3.43755211786487    3.24030089920504
H         0.98041032507614    2.63994959333838    3.65420331290354
H         2.52605762167190    3.00634163419827    2.84931759057652
H         1.06766566080524    3.93624483837599    2.42685143751574
C        -0.72081271773725    6.46539608269276    6.46577435308699

