48
CSD_code = KENZAG | q = 1 | S = 0 | Stoichiometry = C15H20CdN7O4S(1+) | MND = 7
Cd        3.26900655097251    5.71453776024873    7.68452721863835
S         5.04670665834218    6.40835835945797    5.91181224920454
C         0.39227166501336    7.09730298896466    7.90865516043372
C         0.92189387110803    8.05140760496084    7.01967454226872
H         1.89538897128166    7.86810750754509    6.57690908358762
C         0.22445863586863    9.19941041511981    6.75009872048150
H         0.63785752111743    9.93470031936431    6.07725148532819
C        -1.02535210492581    9.43765774317804    7.34228792262180
H        -1.55328322346222   10.35091902751291    7.11679947025652
C        -1.56962450224755    8.52120533237429    8.20100308133604
H        -2.53036051243170    8.69469170894213    8.66147133480637
C        -0.87916437201616    7.33215834757190    8.50311712056406
C        -1.38816200539209    6.34965865329214    9.38183734299987
H        -2.34748200521285    6.50612541928856    9.85156922507411
C        -0.66625507202239    5.21806897756764    9.62556727746175
H        -1.03026883243805    4.44861161000294   10.28830129268325
C         0.59195644231619    5.06850456229812    8.99583875621096
C         3.32680960393026    2.80497412647163    8.93753986592131
C         3.05588753100639    1.68725991249138    9.90168518104298
H         2.31066958595355    1.97366618315935   10.64061760926612
H         3.95948312257023    1.41855701771464   10.44070511756212
H         2.69064652492431    0.80447283216552    9.37626247418389
C         4.61440744508510    2.86117980028417    8.24283433093720
C         5.58427878374911    1.72408213980907    8.37838717576593
H         6.16723593712390    1.59698949808447    7.46691032064878
H         5.06380690600644    0.79089680471159    8.56517680168793
H         6.26992413382248    1.90361633148650    9.20760252651718
C         6.25668209915509    5.31527881044551    6.27257149427219
C         7.87295450930162    6.68356130372950    5.07109170282477
H         7.35797671524663    6.69080903975019    4.10915117387304
H         8.94606837727063    6.67926264308649    4.91005159581092
H         7.58670772555255    7.58704547727891    5.61181849199283
N         1.09909347585677    5.97025733015253    8.17914562756693
N         1.32127573849871    3.92279990948666    9.23323213487689
N         2.51647139690332    3.76973912910173    8.68630019672243
N         4.85431908341498    3.93014884661131    7.57025119207109
N         6.03144512363413    4.16542087794143    6.97834050232937
N         7.50149693675014    5.51228292377531    5.83030042439786
N         4.11249439738169    7.11943920457795    9.60724169648181
O         2.19965069238285    4.86309521619779    5.48216590926018
O         4.23073660553592    5.87479980198493    9.63102747772901
O         4.45682708621887    7.79117215920232   10.53204883779747
O         3.62404562239458    7.62330930058352    8.57963923716366
H         2.68375933577709    5.12517936302412    4.69098583167904
H         1.26688891199055    5.00176593029808    5.28960502799135
H         0.96095315369099    3.26907109208119    9.92694082816774
H         6.82264623133460    3.54576759753611    7.15423054189185
H         8.22906952157563    4.84877305868458    6.05241738747905

