81
CSD_code = KEPLOI | q = 0 | S = 0 | Stoichiometry = C28H49Cl2PRu | MND = 9
Ru        4.92482629119768    7.46289699914108    3.11283215725211
Cl        4.58434166443258    9.65017195898455    2.12589509285416
Cl        5.20242274989249    5.27152473720653    4.10659448517661
C         6.11115063925624    6.52687036950632    1.44747549490972
H         6.25401756828196    5.51202715136131    1.81867025306223
H         5.90709033393094    6.56920459384511    0.38356312338903
C         6.91821509099125    7.55872759041962    1.96993274457208
C         7.18239953384123    7.49067663346060    3.34645015305994
H         7.31072168016157    6.50307712256956    3.79331404074523
C         7.88084370548468    8.58124578350761    4.12297000199520
H         7.88129777872747    9.52011829310699    3.56849905511792
H         8.91448178046594    8.30145407291494    4.34585934804695
C         7.03164047247555    8.73168841479224    5.38762265933813
H         7.18664949571291    7.87371937293506    6.04214053079948
H         7.27130934124033    9.64303082366805    5.94134746595855
C         5.61831371390261    8.78086588228294    4.86060924208193
H         5.37142192295692    9.74232745643670    4.40768754680211
C         4.56777310264621    7.97341042227121    5.30913349993827
C         3.36906995244354    8.04974332469741    4.55813760474883
H         2.56598713773056    7.39419328941217    4.88832845353479
H         3.03376857143161    9.03230484075278    4.22151687550866
C         4.68852258729040    7.04596270281647    6.48432452889422
H         4.69059572762346    7.65730199137535    7.38884136611219
H         5.60028336644920    6.45444506855449    6.46711300681675
H         3.84549415746480    6.36048808788522    6.52520550296688
C         7.40006884700776    8.69388387187386    1.11094755073584
H         6.93773309711288    9.64153544999211    1.38550704118690
H         7.17431329681242    8.50259564202275    0.06425203411093
H         8.47908264228457    8.79064117003514    1.22801864495536
P         2.93866355784448    6.74482598151680    1.75677948688588
C         3.20887837869173    6.72720334799581   -0.10259823420817
H         3.96594944969800    5.93893052986671   -0.21329236740322
C         2.01985956463756    6.32455561506468   -0.97684213498539
H         1.53220972311478    5.42514383150268   -0.59995505235372
H         1.28675142714434    7.13087101014631   -1.00712758475867
C         2.51050234343577    6.06097224087548   -2.40152436248225
H         3.22308257265705    5.23228947280901   -2.39254134930882
H         1.66660557139076    5.76566463123501   -3.02930791821125
C         3.18069414534530    7.30133846601748   -2.98449568562316
H         2.44411892589327    8.10349870096008   -3.07049167771076
H         3.55547745623254    7.08435752353429   -3.98701259221342
C         4.32269784351426    7.76372202261041   -2.08477934200329
H         4.76301170206813    8.67945017012886   -2.48428138213330
H         5.10335353940961    6.99756120297742   -2.06937527079457
C         3.81124571041420    8.01468803910370   -0.66824467933713
H         3.05932913823515    8.80161824377979   -0.70211922425867
H         4.61959665419040    8.37482963628688   -0.03388286124215
C         1.32464967762565    7.68451737395619    2.05671396559451
H         1.31439392847961    7.82773302455352    3.14281361573243
C         0.00058648249886    6.99742817460204    1.69929365130193
H        -0.11335969055708    6.91457916498213    0.61930559466938
H        -0.06856569605970    5.99870637018864    2.12664212235006
C        -1.16039396875259    7.82610172790966    2.25526336060154
H        -2.10422293195382    7.33273115523824    2.01128807160036
H        -1.08227893814319    7.87214502246505    3.34450628129653
C        -1.15271059224998    9.24178757669941    1.68981907648844
H        -1.96993771484687    9.82057137394010    2.12523060665724
H        -1.31191335693726    9.20140898876015    0.60952454323319
C         0.18410496328045    9.91516789451913    1.97959662631683
H         0.20734800600678   10.91033384847966    1.53147038898691
H         0.30784552377470   10.03378250179996    3.05863858853379
C         1.32979911540770    9.07606671680788    1.42012688908495
H         2.27807448142238    9.57823737988946    1.60532732403337
H         1.19483179375927    8.98765097058834    0.34146037200862
C         2.36741299608833    4.98530664601236    2.02666954748042
H         1.48337115587780    4.86250126406082    1.38948332814540
C         1.95610242187310    4.75727280883306    3.48247776987263
H         2.83998325463086    4.83578376318928    4.11453662938584
H         1.23480109494579    5.51103566674387    3.80592316463013
C         1.35174779369072    3.36591957940121    3.65052953172908
H         1.06370479253648    3.21453143535562    4.69301457596754
H         0.44886246730528    3.27718292183421    3.03841158706274
C         2.36051779051326    2.30418027551664    3.22843910713389
H         3.24012284927638    2.37250867225811    3.87065960833958
H         1.92968767502774    1.30719220446788    3.34358111835491
C         2.78152809827070    2.53071954803782    1.78116122021478
H         1.91095421109906    2.42441196620851    1.12679351117840
H         3.51534045528634    1.77845293435752    1.48477586551686
C         3.38503739764017    3.92373101416338    1.61078189859326
H         3.68085990643054    4.05429243678757    0.56822900928697
H         4.27165060355789    4.00537381312980    2.23781417604301

