75
CSD_code = KEPPIH | q = 0 | S = 0 | Stoichiometry = C31H37Cl2FN2ORu | MND = 5
Ru        5.64172933404165    5.84449427495874    3.54450872448456
N         6.10697141434760    6.82989856054013    6.21443300312829
N         7.32840539265274    5.08389379501753    6.05942023924175
C         6.44812986227661    5.82196239755016    5.36029123524944
C         5.68034623392736    8.71664488667393    8.23010246691080
C         5.24374776745967    7.85794249588160    6.02062737977774
C         7.56674467249387    5.61247696870695    7.30336460694325
H         8.25780101529337    5.16337172411067    7.98547092675299
C         6.55391935366090    7.69395828207614    8.43822158334715
H         7.09673856911284    7.57400744744623    9.35911397134141
C         6.78711899690328    6.72643973439493    7.42935367603814
C         5.00738481711413    8.78941287803116    6.96406785161761
H         4.31083132546388    9.57987605679175    6.74819795526352
C         8.05979131982181    3.97148539556579    5.56086743119490
C         7.62585610979028    2.64559999807221    5.62910296209958
C         8.47993029544558    1.69820606285857    5.05595872118675
H         8.18441031820255    0.66155250559026    5.04984667799422
F         4.65086107351344    7.86373194962739    4.81363015280150
O         4.75125432681204    5.83422706391707    1.46084312675746
C         9.28419175682565    4.30922856483963    4.98643426744545
H         9.56270216371303    5.35195876773146    4.95236247313439
C        10.10647132640386    3.34540548824241    4.44437554412344
H        11.04783835478528    3.61933725056345    3.99468730864970
C         5.37426737722109    9.78657181156263    9.26006531033549
C         3.87436845182825    9.74959880643572    9.58587013279102
H         3.64343448043530   10.48851131698558   10.34946277941381
H         3.59446639419124    8.76736518954549    9.96037584072570
H         3.26841073824161    9.96671014603375    8.71108112354649
C         6.15510729148975    9.57818088195878   10.55992807574117
H         7.22711645889815    9.61801815046986   10.38286321435199
H         5.90304498661032    8.62509077412720   11.01852611713083
H         5.90168305424432   10.36731421748343   11.26393059388077
C         5.75237348388827   11.15790019000033    8.68279879257377
H         6.80913761096117   11.17984920321734    8.42579531150105
H         5.56020710645775   11.93483746250079    9.41888048574869
H         5.17920090386992   11.38875677516257    7.78962935915610
C         9.68942071859244    2.02614040332954    4.47800161044082
H        10.30501477029194    1.24962443466267    4.04880697967421
C         6.30532035182543    2.13654251430186    6.19731388666833
C         5.49470818356747    3.15895225673882    6.99700615259832
H         6.07061468219484    3.58069624602215    7.81741176790470
H         4.62677076307739    2.65853989297002    7.42184159636729
H         5.12080626494687    3.95123582323862    6.35456840398198
C         6.58015037012614    0.94742824419401    7.13472554773085
H         7.28836707109963    1.23240589879670    7.91053635334925
H         6.97786786757982    0.08643068017515    6.60680464444725
H         5.65396834873217    0.63861124821329    7.61342565633178
C         5.43743604040421    1.68870503581014    5.01198837298103
H         4.50860891355713    1.25735858315207    5.37661263120369
H         5.94552782193918    0.95005978871696    4.39758197897873
H         5.19377143357114    2.54897206399657    4.38936688041802
Cl        7.11547007832072    7.51047490783293    2.91120331199485
Cl        3.63840382809758    4.99087851673012    4.30438683514806
C         5.13556831276852    4.72452600935059    0.78475473073670
C         6.05675745817232    3.90859185988577    1.49618801912640
C         4.69974811053149    4.34841885687521   -0.47643262987840
H         3.99499069356689    4.94932538656075   -1.02974978274716
C         6.47160356251090    4.31777720915272    2.78762164815863
H         7.23837362242717    3.68778430027556    3.23555796893204
C         6.51223298251736    2.72854237275962    0.88621602426357
H         7.21504691497867    2.11022388423656    1.42559248055601
C         5.16439719807941    3.17041179431551   -1.04184307350062
H         4.81377016752433    2.88463982784371   -2.02216989100267
C         6.06964487436889    2.36449694119966   -0.36606168843581
H         6.42430744825930    1.45339634606758   -0.82379979178206
C         4.04409875721274    6.88094595645405    0.79651793570727
H         3.18425376853214    6.44510983886599    0.26658304134062
C         4.97642904305567    7.60990278872050   -0.16871570648090
H         4.46151644992637    8.45647333019773   -0.61465666738437
H         5.32253971179170    6.94935547117662   -0.96060184555291
H         5.84424820025610    7.97132327824807    0.38139131857754
C         3.54488728037192    7.81605047790614    1.88838566891730
H         2.99237112903534    7.25117576032498    2.63991176924381
H         2.88850223623389    8.57375376617791    1.46909110130454
H         4.39559043155564    8.31140052986027    2.35634733730848

