60
CSD_code = KEPPAZ | q = 0 | S = 0 | Stoichiometry = C26H27Cl2FN2ORu | MND = 5
Ru        1.53957524637018    3.14747272746963    4.67213867731251
Cl        3.57711015271917    3.67656522599402    3.74175330413183
Cl        0.04885073190727    2.83849402824187    6.41530794821105
N         0.03196030022271    5.64444066338873    3.56563235943880
N         1.21156518799978    5.93448246175765    5.32838439376782
O         2.27041387610070    1.01828330105629    4.93323124843087
C         0.85724366455814    4.99105351336774    4.40637111794315
C        -0.62919911712356    5.11343129047778    2.42604802518185
C        -1.98722596731187    4.84438196359679    2.54425764946490
H        -2.47186945591100    4.99767333475183    3.49669698484570
C        -0.69226887231647    4.45197403360781    0.14143640472083
H        -0.20044421050349    4.29946598997829   -0.80674020054051
C        -0.15094858797518    6.95186606620629    3.94171055924899
H        -0.78216148064317    7.61533863420441    3.38884648305205
C         0.04839879262359    4.92272231779329    1.22116377693538
C         2.04444288610309    5.80426283535912    6.39332347545484
C         2.30100105872981    6.82784971234405    7.23512004884835
H         2.96634211463407    6.68899028285858    8.06909471106817
C        -2.04141790355885    4.17261683475433    0.25325166001073
H        -2.58575085358059    3.80294607722217   -0.60304236353504
C         0.59398699415307    7.16317067246884    5.06535088873930
C         0.84454197461989    8.25472112469508    5.93476872891043
H         0.36175306744423    9.19536637657846    5.72820637606718
C        -2.69503550824949    4.36524900454753    1.45885191282185
H        -3.74711252609360    4.14520892450626    1.55363069907107
C         1.67522846121879    8.08569384002369    6.99319152130144
H         1.88079966277305    8.89827838211346    7.67042646032353
C         1.51922612006335    5.21866982926243    1.07440450986410
H         1.93552108729249    5.46188201873159    2.05646793647271
C         2.27607536708713    3.99247896263570    0.56358985149912
H         1.94901209502900    3.70217434077899   -0.43146210821606
H         2.12379653391597    3.15808164128521    1.24621506485828
H         3.34014557383661    4.21008293662193    0.53087582575295
C         1.72189625723233    6.42055261010633    0.14783321833016
H         2.77958179827875    6.66198414762301    0.08014968075153
H         1.19197266161657    7.29248875795422    0.52728457650680
H         1.35322328931296    6.20397898975229   -0.85211002723069
F         2.59002150410990    4.58560422734573    6.52713791321241
C         1.77416257596420    0.22135068131792    3.95562099767978
C         0.88762253417802    0.88582523910327    3.06487455347351
C         2.07192519133348   -1.12018096233399    3.77092376928098
H         2.74853254149151   -1.64139476628659    4.42995997581445
C         1.50116808433795   -1.81293094364841    2.71384545098979
H         1.74263781766033   -2.85648135513565    2.57864480966608
C         0.32448803206426    0.14894620926405    2.01005746691959
H        -0.35079706351022    0.65361047428058    1.33428111600879
C         0.62786426374464   -1.18329244517448    1.83823700032122
H         0.18817980267695   -1.73967623700443    1.02433590104086
C         0.60822991114798    2.25763835813286    3.28254300657173
H        -0.14142364634367    2.67960424852869    2.61355335083924
C         2.95773380482751    0.45185703776076    6.04970082687734
H         3.74644843626520   -0.21675788102793    5.67429199149898
C         3.59352002919328    1.61678499200906    6.79435372542193
H         4.17616217393819    2.22859591548909    6.10478988567725
H         4.25123162026898    1.25191238732492    7.57860161936548
H         2.81156500207227    2.22377127420421    7.24989202824329
C         1.97411692035584   -0.30006662243578    6.94392350571204
H         1.17216680612243    0.37651015946709    7.23631943848846
H         2.48128714647867   -0.65510701341190    7.83689466187707
H         1.53432603904943   -1.14939683188724    6.42595562517505

