75
CSD_code = KEPREC | q = 0 | S = 0 | Stoichiometry = C32H28Cl10O2P2Ru | MND = 6
Ru       13.23376163592317   11.23712516550918    9.45603315513529
P        12.11035535258254   13.21220150096222    9.66389088251487
C        12.27495309630643   14.06617862332756   11.25587590953847
C        11.43199458986516   13.63882436918723   12.28217663075909
H        10.66448944851929   12.90625926953176   12.06342293695613
C        11.57561474848424   14.14523752775517   13.55911640762300
H        10.92264318118330   13.80792411691885   14.35000342869738
C        12.56581251361726   15.07845307632877   13.82447156058781
H        12.68729162777256   15.46659817272695   14.82424820246957
C        13.40087832820415   15.51093614206450   12.80830560030909
H        14.17010663569178   16.23989154236440   13.01479303194404
C        13.26322353397491   15.00574063349384   11.52697994284925
H        13.92847967344101   15.33963798547532   10.74499886680963
C        10.33781053931145   13.37885386169261    9.30777297930682
C         9.67943757385179   14.57365816678321    9.58862225050465
H        10.21628757935491   15.38546485263702   10.06140170048892
C         8.34106336428258   14.71000166013496    9.27321047752040
H         7.82816625530824   15.63483760959079    9.49338443072891
C         7.65568573456846   13.66089128701321    8.67834723527346
H         6.60873384686163   13.77199389480232    8.43774793326873
C         8.30916490077673   12.47236176324690    8.39947563490737
H         7.77471171274139   11.65261126853484    7.94306459865669
C         9.65035825507001   12.32842700820348    8.71226511810055
H        10.16988032292076   11.40157712783384    8.51637577385760
C        12.84125947589905   14.32633879672974    8.39203774451120
H        12.27649538669971   15.26210616606178    8.33132432818113
H        13.87261758010714   14.53292183517997    8.68370777499548
C        12.80135061169518   13.55368504238293    7.07756908014100
H        13.26875930655823   14.11173911258452    6.26287432713569
H        11.75542587585521   13.35219542844702    6.81914391503368
C        15.37166520335244   12.15281570224519    6.73688343467532
C        15.94414583087424   13.46439749460720    7.26492973769494
H        15.86979791471346   13.48083932951815    8.35035683968556
H        15.44043574065104   14.33303094268508    6.84874036058672
H        16.99793439545876   13.53142882981550    6.99938580746524
C        16.22841014384930   11.00101743813325    7.25621823964585
H        17.24459619437867   11.08687387221778    6.87501969978080
H        15.83344683629629   10.03152367245382    6.96321270552183
H        16.26713181833258   11.05282656574931    8.34353886261319
C        12.76937831444051   10.93444962422993    5.93351122028560
C        13.38913482094865    9.55033808120618    5.75860792181531
H        12.74086907087591    8.92787293412673    5.14438308713258
H        13.51390894036914    9.05416690831552    6.71899863835361
H        14.35616146695311    9.61925407355721    5.26477022186381
C        12.71078476353442   11.66051923223291    4.59239868223372
H        13.70867505150188   11.86197014288941    4.20940540421567
H        12.16679067509863   12.59804504610111    4.65889416474464
H        12.19957941909742   11.02795098997436    3.86894133593440
O        11.63837247512962    9.92909710731017    8.87577344073227
C        11.86548394914752    8.67181339218827    8.87635882589665
C        13.13335669459338    8.09680063191382    9.13305684360573
C        13.36087116613110    6.73180535012335    9.11671962400598
C        12.31303800468394    5.85866582836114    8.84492040951471
C        11.04473117477237    6.38008903539361    8.57654976706260
C        10.82886728433452    7.74553808139490    8.58619702218896
Cl       14.43081310441406    9.19275990809644    9.43908739937358
Cl       14.93882527522987    6.12542269287026    9.42882838644052
Cl       12.57774161000552    4.16009288445396    8.83194348880360
Cl        9.75018732852430    5.30969415241746    8.22688451579263
Cl        9.27541253156235    8.38969885000387    8.23779413213281
C        14.96190904339999   12.44270862654637   11.51480016457242
C        14.10450132238221   11.76571702648868   12.41433209524858
C        14.16713786152357   11.94058840655270   13.78513629888167
C        15.12034987903079   12.78857820895944   14.33672818904728
C        16.00530084251618   13.45772842956000   13.48971663371062
C        15.92984041899377   13.28526987590458   12.12115670610465
Cl       12.89387664170805   10.74509715492826   11.73559673947046
Cl       13.04614780083410   11.12685070926892   14.79870278375214
Cl       15.18312404766691   13.03731408278960   16.03516296483593
Cl       17.16704773512916   14.52792392191799   14.15820637800095
Cl       16.98143473428004   14.14888869439416   11.07381044107837
P        13.61123855046729   11.89536005358456    7.28954614409500
O        14.88936310286139   12.34884784425912   10.24220321516857
H        15.37537902644619   12.15927619234711    5.63979170789269
H        11.74888910603668   10.80937897035869    6.32295745951758

