102
CSD_code = KEPXIN | q = 1 | S = 0 | Stoichiometry = C51H44ClN2OP2Ru(1+) | MND = 7
Ru       16.51372102937799    1.20515246085343    8.09431379124296
P        18.46797317372542    0.17781341834646    7.38894412390187
P        17.17131257730248    1.76663428854807   10.22693419722379
Cl       15.81622273704971   -0.93322095477587    8.75944011319977
O        16.54536476282103    3.21544139534321    7.51046079080011
N        15.67588756042134    0.97769465032161    6.09176222308174
H        15.81692671300091    1.89040892262511    5.64470971477747
H        16.06621707912702    0.27312717201343    5.46278468395203
N        14.43477335780009    1.67393468094638    8.50713873314221
H        14.10505381256595    0.84104473536250    9.01080045060640
H        14.24772688367077    2.48524010973459    9.09914530349225
C        18.99475260231017    1.30589989104867    6.05444454789940
C        19.71132524622652    0.98610922925422    4.91006588866263
H        20.08981753707055   -0.01484895360763    4.76576398747562
C        19.92191609214024    1.96002835499883    3.94672486284471
H        20.48224782802587    1.71766781028245    3.05691549273845
C        19.40192763946255    3.23412036431713    4.10871228384288
H        19.55297630883860    3.97948943642942    3.34309729174596
C        18.68304232974942    3.55962768018973    5.24910394870891
H        18.26627622741197    4.54865615622282    5.37566198881560
C        18.48875912916425    2.59644216281457    6.22738095126095
C        17.76794447237414    2.88116259084564    7.51736595213668
C        18.66042301617082    3.40167963569622    8.61069216334206
C        19.65503686051435    4.33404519576744    8.33097226042784
H        19.86189025934997    4.61253073079484    7.30821380577456
C        20.36778455572173    4.92232537389689    9.36087147639389
H        21.13864620050929    5.64170314824511    9.13064405190561
C        20.07819070848904    4.61602749477664   10.68155234867342
H        20.61405970998970    5.10441776742897   11.48084096595843
C        19.10171126449848    3.68187914148589   10.97343074911932
H        18.85588230333848    3.44494541058348   11.99904141195778
C        18.42159032037422    3.04565344798165    9.94048002196420
C        18.49639327227183   -1.44066760394929    6.55420042603136
C        17.33632534711013   -2.06613473721479    6.11250522590055
H        16.36869130495660   -1.65484344509357    6.35937110185402
C        17.41152633592561   -3.25638959732298    5.40943162314792
H        16.50448321902006   -3.74045581662917    5.08030884129975
C        18.64235294928083   -3.82701513695777    5.13592353164438
H        18.69915362299619   -4.75565525898049    4.58928327861492
C        19.80277334509242   -3.20925568464511    5.57587443753773
H        20.76474006664834   -3.65493921651611    5.37219794249140
C        19.73510920429243   -2.02275733340241    6.28104922440828
H        20.64251625297089   -1.55266470884497    6.63454759048062
C        19.89514035787557    0.03119966068217    8.49642404160283
C        20.92838400796228    0.96174398364449    8.51709602815986
H        20.90023450136442    1.81806945459790    7.85745592424785
C        22.00076398359688    0.77207366034952    9.37089546507077
H        22.80620414345947    1.49105772690164    9.38433130746377
C        22.05029438295450   -0.34344660272326   10.19122769755791
H        22.89929924214388   -0.49541485419822   10.84013329282065
C        21.01534076918961   -1.26647313224765   10.17815380390682
H        21.05453503056627   -2.13533577809706   10.81710554611217
C        19.93194902599810   -1.07592318075604    9.34287448838341
H        19.11313320313111   -1.78368668674905    9.32719377335983
C        17.86254986067391    0.57962962524858   11.40614529083581
C        19.16609077735144    0.62591371055661   11.88530873861566
H        19.85375804294161    1.38005257086025   11.53222572071185
C        19.58929410787684   -0.31154422276736   12.81186089231285
H        20.59765860009884   -0.26220251315669   13.19441956386253
C        18.73119293572358   -1.30896589343758   13.24303949604222
H        19.06947130104255   -2.03717014740315   13.96438484368733
C        17.44022000905296   -1.37753946295641   12.74237986264424
H        16.77361388215958   -2.16301556116922   13.06480046533598
C        17.00424020590335   -0.43592872746943   11.83038793673505
H        16.00025022498613   -0.48667342762199   11.42948922305197
C        15.96464127150572    2.72262351264026   11.20516307786440
C        15.55916413905710    2.38904881462763   12.49173123782458
H        15.95783169393532    1.51132629622783   12.97847402191476
C        14.64618601097355    3.19294197775650   13.15454856428964
H        14.33643035677985    2.93249379447538   14.15517200428235
C        14.13582832455625    4.32638908666698   12.54472699016121
H        13.42578081150795    4.94824331570097   13.06762227137003
C        14.54392005660645    4.66752715969106   11.26386516854900
H        14.15548811944078    5.55680584043843   10.79018909682793
C        15.45397166790631    3.87116152992162   10.59534869765745
H        15.79101607002384    4.14094451090469    9.60048523995468
C        14.23125533859989    0.74823054986098    6.25113120856556
H        14.10194286440668   -0.24938652496776    6.69212901785962
C        13.68732444343919    1.79524559972046    7.24832523394266
H        13.87963706651782    2.79712630755448    6.84176822947828
C        13.46888747879541    0.82894687937499    4.94822500596154
C        12.58033607707643   -0.17923322617480    4.60039521025654
H        12.45618258383011   -1.03058044235579    5.25343956064564
C        11.84946593696691   -0.09467839681695    3.42881654543259
H        11.15947699727702   -0.88263875597075    3.17009082591780
C        12.00168653824872    0.99822919968100    2.59290214130699
H        11.43183261965227    1.06495856997918    1.67928515881571
C        12.88625333369684    2.00727187041294    2.93298412185145
H        13.00677594537315    2.86318112412414    2.28643025706549
C        13.61477050344500    1.92475224136904    4.10582960954469
H        14.29198660057755    2.72933429734648    4.36156335320720
C        12.19874635701744    1.59672197626183    7.43020922857135
C        11.71361341889383    0.46542139966515    8.07637998568659
H        12.39393376794843   -0.27723392934708    8.47185022447592
C        10.35078346421238    0.26962925644391    8.20892450038171
H         9.98359827951239   -0.61149027795955    8.71259249670346
C         9.46141204197077    1.19701191099791    7.69294304380767
H         8.39866935135326    1.04137264469569    7.79492445162063
C         9.93908829583543    2.32220610524826    7.04374739897661
H         9.25100324830020    3.04701696088000    6.63692909380855
C        11.30219566334565    2.52143897181433    6.91396685897516
H        11.67161944623176    3.39866523777464    6.40275366348016

