110
CSD_code = KEPYOV | q = 0 | S = 0 | Stoichiometry = C41H63N4OV | MND = 4
V         0.66199624391289   12.04007897454387    5.00922605430191
N        -0.05762319178548   12.67550868468119    6.34346397103906
C        -0.38317085070500   12.68404446864997    7.62374971079228
O        -0.34866590818531   11.64366005580768    8.28721844723475
C        -0.83176389658064   14.00120456861482    8.31184563726405
C        -2.15275881484240   14.46499797238614    7.69102329543713
H        -2.54780775775216   15.30925056868228    8.25462355842030
H        -2.88762292087062   13.66266485616614    7.71654681461793
H        -2.00434986776805   14.77400793265922    6.66136231973929
C        -1.04335328673795   13.72056587281066    9.80032332542770
H        -0.12910714801029   13.33963779439185   10.24859879027608
H        -1.81711817015612   12.96978029669054    9.93589316365836
H        -1.33822150483478   14.63241972787100   10.31588599501168
C         0.22921128603686   15.09168538483965    8.14734246212361
H         1.12593103630125   14.84341769509110    8.71211379944586
H        -0.15504074941617   16.04019864263436    8.52004329467881
H         0.49870510824263   15.21524743225049    7.10034116289014
N         0.45702750519480   10.24881583350804    5.00266577489051
N         2.39682006879476   12.51587389293682    5.05461294587330
N        -0.23029795989545   12.73173560756180    3.57539271285176
C         3.32993430878384   12.70903645492979    6.16435002287695
C         3.40615436751413   14.56413983520049    2.13545430197304
C         4.12057155041821   13.62713270621944    1.39936417651588
H         4.58840925273309   13.92344718707412    0.47010360982857
C         4.25082380892735   12.31842712209546    1.84683453805542
C         2.93760673860573   12.86958515433183    3.81078285059549
C         2.83042399475268   14.18031656032237    3.33775325934441
H         2.29241150718320   14.90608147180527    3.93137887012947
C         3.65533950698864   11.94917489253227    3.04321553199007
H         3.76633020793149   10.93613794926306    3.39763194361539
C         5.06268975312814   11.32587281105081    1.06916522476319
H         4.88035696906029   11.42197606578054    0.00060540342003
H         4.82726044138584   10.31201979899918    1.38013306237239
H         6.12567931277051   11.49950089540201    1.24175269809710
C         3.24423145698103   15.96790849097365    1.63030992250763
H         4.10867378991272   16.27174954058785    1.04400113743440
H         3.11371995761580   16.66540217728042    2.45471944106451
H         2.36389891126290   16.03499786394329    0.98881334874730
C         2.73234615304683   12.16816084779502    7.46918846801987
H         2.05912868602302   12.89714462224575    7.91014173585984
H         3.52498372549250   11.95857309228483    8.18559175262341
H         2.16104991358954   11.25912064653617    7.29133648582248
C         3.63787407430167   14.20811975971971    6.36118623381211
H         4.21654294530620   14.59943879336360    5.52647826346418
H         4.21360929925154   14.34575628451437    7.27373724221384
H         2.71002359969422   14.77056683276576    6.44571289762461
C         4.66805388549347   11.98701573121663    5.90808560809718
H         4.50547096166305   10.92300563194808    5.76345834476470
H         5.32376079081282   12.12771740001941    6.76474605067623
H         5.16837562480469   12.38845416008764    5.02897978279033
C         1.58313830400265    9.58797800817938    4.48749066984994
C         2.62762149395164    9.16927610429316    5.32238828009594
H         2.58487056988433    9.39684853740416    6.37812926240549
C         3.76364510232148    8.15907200551042    3.46994586782075
H         4.60655337907535    7.60302925009866    3.08269787935300
C         1.66489412630134    9.26100957639152    3.13287594596016
H         0.86675782310215    9.54658133815147    2.46665421169914
C         3.71217985930148    8.46402227184047    4.82630938058359
C        -0.54941920463257    9.34112975156178    5.55320810958442
C         2.74300587804291    8.55238712118611    2.61872795778361
C         4.81686682570222    8.01194038804631    5.73694006501223
H         4.83564169466956    6.92332082932897    5.79152604764847
H         4.68103679936850    8.40392891615097    6.74229540876762
H         5.78441880629117    8.34158942292223    5.35911238645727
C         2.76611163541148    8.20235479367179    1.16035753981390
H         3.75325794341892    7.86503523184105    0.85152116593001
H         2.47653356908138    9.06299330876917    0.56117979117660
H         2.05418551338878    7.40132234217828    0.95869786072222
C        -0.08003121581065    8.71107714346711    6.87776936005298
H         0.77226746417512    8.05310843126689    6.72273964311731
H        -0.89015063061504    8.12271912081479    7.30296944157448
H         0.17684381529184    9.50065112537252    7.58167538744483
C        -1.84678597950254   10.10386621334689    5.83958780524970
H        -1.70509387890885   10.75625924319821    6.69558051085774
H        -2.64272789438206    9.39867828891268    6.07304089760374
H        -2.14356778752114   10.69918741826685    4.98062618111388
C        -0.86058353835006    8.20496108233569    4.55781072983299
H        -1.17863301705662    8.60902537982149    3.60018060405922
H        -1.65913200276897    7.58298712403726    4.95622152428336
H         0.01308639264688    7.57616262236039    4.39642902158331
C         0.73183320816676   12.16012675374798    1.41496987057720
H         1.46952866848983   12.93509500001564    1.55098618820528
C         0.71852826630701   11.43200366671791    0.23466180931856
C        -0.21495480978266   11.94127522893212    2.41745765255051
C        -1.17391937110512   13.85249956575195    3.50814524677652
C        -1.22521568812173   10.23118263846510    1.01531219824939
C        -1.20369876533505   10.97918229305476    2.18243410895480
H        -1.97175729616143   10.81812927982407    2.92559220580820
C        -0.25551271357933   10.46121662345240    0.04744764238253
H        -0.27195005038388    9.88867173361947   -0.86962817714967
C         1.71092809409427   11.72419352834646   -0.85175290322492
H         2.13994009755414   10.80462947098737   -1.24710518618912
H         2.51048100934110   12.35864083516184   -0.47946499832860
H         1.21719182818748   12.23889178676006   -1.67683801951473
C        -2.27400482071332    9.18034749244038    0.79618656603312
H        -3.10274202113396    9.30285428418530    1.48985192986634
H        -1.84729145580938    8.18758439495603    0.94617695299906
H        -2.65732756519770    9.22640297845544   -0.22154696310891
C        -0.55840714033248   15.07160347263646    4.21044598531042
H        -0.11610516554076   14.75288757078487    5.15244489873706
H        -1.31773275555282   15.82909221914072    4.39657029004680
H         0.21234492499527   15.51085054409260    3.58038327722767
C        -2.49928491282629   13.47150631101789    4.19539505242678
H        -3.03410157486728   12.73188501934340    3.60300025846369
H        -3.14074640092261   14.34475434559347    4.29699830744725
H        -2.28770846523794   13.05793901065258    5.17971946229226
C        -1.49043982706639   14.27796914941782    2.06250297127658
H        -0.57728665309094   14.51419230050171    1.52023393903305
H        -2.11888695916524   15.16592422471992    2.08579425600423
H        -2.01911824746454   13.49738884343428    1.51995079501725

