57
CSD_code = KEQCOY | q = 0 | S = 0 | Stoichiometry = C18H30N4O2Si2W | MND = 6
W        10.44825776922194    0.87060859541551    0.17427160543567
Si        9.50284370941287   -2.04355365324734    1.45574358189738
Si       10.97215075893126    4.06274910364853   -0.43066804980263
O        11.65484940124424    0.83689454183727    1.36011582334692
O         8.94396524372817    1.49471283037337    0.63963034087431
N        10.15686599193614   -1.21327938739763    0.08116093833178
N        11.86942866063630   -0.42973556658086   -1.14440182598899
N        10.96623302893210    2.46026603521975   -1.10289003930367
N         9.70279726403037    0.84988726535815   -2.04546095087936
C        11.22149550935759   -1.52864933534636   -0.66482246977860
C        11.67165951139284   -2.82053536578814   -1.01119185049969
H        11.13813150490526   -3.67866531644708   -0.63851380664323
C        12.77424311016932   -2.94363281617009   -1.82103844261232
H        13.13615654476426   -3.92355039006222   -2.09817381378687
C        13.42993889936856   -1.80491899816746   -2.28796610693019
H        14.30014342618424   -1.88671900700330   -2.91907950804110
C        12.94391736081031   -0.55956164943397   -1.92525209174777
C        13.58527840197250    0.71472992678858   -2.38698859959144
H        13.25375923483421    1.53517361831070   -1.74728731765151
H        13.28866321487675    0.93245796432294   -3.41366535976074
H        14.66941837856974    0.63381427030752   -2.35451547661180
C         9.33433668963394   -0.66609927414601    2.76663286184214
H        10.31216447779038   -0.18864281385435    2.90516848025686
H         8.96725556159716   -1.00046801606389    3.73220661995971
H         8.66214008100444    0.10972133763529    2.38608430271902
C         7.79958614740895   -2.78086596318135    0.97319984879032
H         7.88291514009822   -3.52327330292978    0.18467488550239
H         7.12063652077080   -2.00545321026119    0.63057164930566
H         7.34109837022170   -3.26409377716495    1.82863808905389
C        10.63030322999082   -3.43910434634603    2.13376807227878
H        11.67877235225258   -3.16134684355647    2.07874950495948
H        10.50125517334863   -4.36985574488206    1.59152311618613
H        10.39776788371564   -3.64058939558231    3.17405959984749
C        10.26409925627270    2.08308891920760   -2.18050199810360
C        10.10154719219366    2.80757722789079   -3.38026271643259
H        10.56238783289190    3.77749743668813   -3.47101283353783
C         9.36904473105798    2.24975950792323   -4.39917590262545
H         9.23259549590173    2.78657767873557   -5.32718444281543
C         8.79813476736396    0.98799200082893   -4.23683412089970
H         8.21521088949808    0.53907365344019   -5.02486583740722
C         8.98782393076930    0.31725470549038   -3.03999240637504
C         8.40913766689044   -1.04267862872116   -2.78908862092304
H         8.36030917239624   -1.21991084651942   -1.71384083344443
H         9.04653004685734   -1.80667284192696   -3.23607073214280
H         7.41673849539616   -1.12651256184846   -3.22604485803473
C        12.49279300814726    5.04744115068981   -1.05546034499649
H        13.42345429083752    4.54855590408726   -0.80403677655004
H        12.51316545557332    6.02945348133480   -0.59756595994293
H        12.47598609543463    5.18987293458648   -2.13123310917081
C         9.34819043247592    4.99069377615217   -0.85452519535216
H         9.29706215627764    5.29643030247514   -1.89495131784698
H         9.23135204018749    5.88167255812105   -0.24646420703609
H         8.50186788244805    4.33634691879547   -0.65496384116926
C        11.04766609595400    3.75996039936049    1.45045711964569
H        11.89913133521911    3.12028510047626    1.69316048174947
H        10.14546158002591    3.20794924674871    1.74684372264132
H        11.11718159681058    4.66647066037331    2.04373111980900

