61
CSD_code = KEQFAO | q = 0 | S = 0 | Stoichiometry = C32H24N4Pd | MND = 4
Pd        1.40722352539845    1.16023767791679    5.78662803206767
C         2.41814789607646    0.19015525328543    8.54156584133469
H         1.72047714279908    0.87168256944446    9.01344268486791
C         3.29245048899622   -0.57026050053290    9.32736746219369
H         3.26775512703008   -0.46071855674401   10.40078817444059
C         4.16798589292466   -1.42946692044592    8.72004849931468
H         4.86572047788652   -2.01800139897288    9.29810999012363
C         4.15565768401072   -1.55791400477164    7.31379335173904
C         5.02739913990850   -2.39032124855239    6.59804227009996
H         5.75721580742782   -2.97507349913071    7.13628433789169
C         4.95649452124812   -2.43902775891018    5.22144579950859
H         5.64883356276836   -3.06791887378941    4.67961205114769
C         4.01808137407908   -1.71201683241725    4.50651667003938
H         3.98793273071195   -1.78069608307323    3.43010517074092
C         3.09666123064484   -0.89125181802541    5.16967763153143
C         3.20782028242928   -0.77261823562847    6.60061175867205
C         1.93641200223851    0.11011242233483    3.24462780619559
H         1.87778907304543   -0.79566922367654    2.61811550984574
C         3.07815525338463    0.97992229541779    2.75400482410381
C         3.67033861776107    1.92983676710316    3.58121434035138
H         3.33466187031602    2.05294672763844    4.62287945717832
C         4.69211791042548    2.73111502343136    3.10302522065246
H         5.14536833565011    3.46579281931393    3.75259013941146
C         5.13719037654785    2.59489997278261    1.79893970888542
H         5.93782740895007    3.21917627938251    1.43066092752807
C         4.55200794345739    1.65347907200107    0.97017046288190
H         4.89437933035774    1.54001310338339   -0.04815539117956
C         3.52868441308251    0.85360599470580    1.44586055773782
H         3.07423534385285    0.11842856154571    0.79577211803872
C         0.59595348573472    0.90404039206477    3.11831373337161
H         0.56728960803350    1.40653992587055    2.13694055288167
C        -0.56737723446137   -0.06468390185199    3.21391384735416
C        -1.14863117991196   -0.56092693715984    2.05369530412997
H        -0.77826308303461   -0.23371360736656    1.09172921738158
C        -2.19540346542609   -1.46283470257584    2.11722879044049
H        -2.63987756417115   -1.83607127383597    1.20606974016737
C        -2.67353908810161   -1.88305409039182    3.34621245172929
H        -3.49265669746051   -2.58495766428396    3.39862381505505
C        -2.09748053691269   -1.39781615970678    4.50807837784906
H        -2.46686983769093   -1.72458043166178    5.46927037750665
C        -1.05160538690901   -0.49388597088990    4.44621550241261
H        -0.61072343942779   -0.11871805565365    5.38308143572429
C        -0.38877493215252    2.72148294881021    4.45283473999875
C        -1.39406308953971    3.15591276469169    3.57929122520539
H        -1.47463552040896    2.70960303194872    2.60021028279813
C        -2.27457481711770    4.15602477810943    3.95978384415443
H        -3.03467359092043    4.47269297661134    3.25950950407534
C        -2.20472605650413    4.76203719308148    5.19682340515046
H        -2.89182418943870    5.54853718559591    5.46808670655941
C        -1.24321916282494    4.34324541543388    6.12701766776272
C        -1.11006136790039    4.89140130315412    7.42162453039924
H        -1.76128070313243    5.69924336497668    7.72272197368224
C        -0.15513957949887    4.39776713480093    8.26902600575343
H        -0.01924508574628    4.80523654330221    9.25914840715626
C         0.65516282875290    3.33623754348039    7.84869637980518
H         1.41474514784055    2.93991109434487    8.51191157662542
C        -0.35165749483265    3.29226966988522    5.77450081071819
N         2.38604576186870    0.10794269869752    7.22361565621855
N         2.06622708152034   -0.23215657066141    4.64099975960263
N         0.60013575612289    1.86647624998294    4.19423984070200
N         0.55181867024187    2.78834756618249    6.65123913028551

