19
CSD_code = KEQFOE | q = 0 | S = 0 | Stoichiometry = C4H6N6NiS2 | MND = 4
Ni        4.05442765282818    8.93529837244948    1.82614209318913
S         5.63062765519695   10.27485627441648    2.55247142050846
N         5.19334476060285    7.52046729887893    2.35131506993444
N         6.38547622449719    7.70912959193761    2.90148756584844
N         7.86264247808527    9.32753346065611    3.58158756196871
H         8.50539941488060    8.61596320672013    3.88210530507928
H         8.08921615979956   10.30013460226799    3.68934224317888
C         4.70348065197900    6.33558789325900    2.12546737095671
H         5.24974417940472    5.43534784258123    2.37738346847331
C         6.68788662518593    8.98549385207413    3.04055425413491
S         2.47818518416963   10.27485245240909    1.09990858935258
N         2.91559075508794    7.52046428571363    1.30080401824803
N         1.72351812491492    7.70912379873180    0.75051692179971
N         0.24645685036669    9.32753079583979    0.07022606793936
H        -0.39621070949773    8.61596182094440   -0.23047986483781
H         0.01988091772430   10.30013249886021   -0.03751840926981
C         3.40548461876570    6.33558651494145    1.52658931112302
H         2.85925897614779    5.43534587193191    1.27459194228663
C         1.42108947986051    8.98548956538662    0.61150507008605

