53
CSD_code = KEQGAP | q = 0 | S = 0 | Stoichiometry = C20H22CdN4O4S2 | MND = 8
Cd       15.65459208882116    2.09328059123043    4.30549669981716
N        15.88448308736246    0.05285439518060    2.63430674363792
N        15.34229064451991    4.12472533041950    5.82719795226601
N        14.57494633135750    2.95011554148439    2.79639779868296
N        16.86418350257421    1.24689234018923    5.70837035980801
O        17.82321053077905    1.99635467888226    2.59117317594475
O        17.40428723739806    4.26555653122307    4.13100420280778
O        13.63876606221401    2.04229622615425    6.24763689294599
O        13.84783506823750    0.03827480558377    4.31230465008917
S        13.66025377583420    2.21880194138488    0.29719142220501
S        19.50281375340631    0.59212618566957    6.18474388634375
C        13.52760993026891   -0.37663059863969    3.00945407419344
H        12.89039068366241    0.37029498402396    2.50679154280276
H        12.97405709703418   -1.33028596077740    3.04030013417991
C        14.78789692685902   -0.55681774049862    2.20856826969284
C        14.76469533438966   -1.34548683995267    1.06117177399433
H        13.84489199188740   -1.81042835401917    0.74283342351311
C        15.93282544769565   -1.50483422425895    0.34154504743235
H        15.95019029048850   -2.10266023588188   -0.55729013245381
C        17.08124837744431   -0.87602518759495    0.79463177617181
H        18.01337677563003   -0.97461090810211    0.26062688085842
C        17.01082445883883   -0.10238133559038    1.94540654343248
C        18.21207092458024    0.64701502671435    2.45233537082029
H        18.53820427941231    0.23651527806238    3.42065240408001
H        19.04383006678673    0.56549306682709    1.73598628409543
C        18.87792199995655    2.85881954325643    2.94740822459655
H        19.67115558236827    2.82833987652733    2.18449197642270
H        19.29935914672042    2.58062039619976    3.92280982039675
C        18.27157816423014    4.25117882892406    3.02269812211462
H        19.05784012826627    5.01302311389340    3.14085386978404
H        17.71278353644188    4.44222282199087    2.09537613924620
C        16.53396017475522    5.37379160955569    4.15051334443368
H        15.83292056071410    5.32215798674442    3.30040090917983
H        17.10491464195673    6.31318483259171    4.08657655510144
C        15.76407949173250    5.32056423624468    5.44073047947580
C        15.54402969873516    6.46655948431855    6.19861942998165
H        15.89675568250026    7.42540572496106    5.85217010636107
C        14.87246792577048    6.34912773189278    7.40276806304877
H        14.68546947850841    7.21809431852967    8.01582776070814
C        14.45315796736185    5.09432473161450    7.81078217296428
H        13.93690682245600    4.96062963993812    8.74852661769647
C        14.70944810583428    4.00436454495616    6.98640425368317
C        14.27730733924597    2.61549364272613    7.36562201313488
H        15.16856980114749    2.02540899473343    7.63650865425771
H        13.59068227964890    2.64453513576298    8.22623808460140
C        13.21240237831229    0.71977350538934    6.47073788912208
H        12.40354481397010    0.69832578988430    7.21828063983027
H        14.05010992196093    0.09855220980575    6.81800419982454
C        12.71838426980161    0.18469451807904    5.13643574470582
H        12.21566896485511   -0.78588563386548    5.27494860268056
H        12.00856595293421    0.90107464265103    4.69714013012721
C        14.21237968384246    2.61517209034878    1.72614564750345
C        17.99836081858606    0.98541014453220    5.89064337164094

