53
CSD_code = KEQHAS | q = 0 | S = 0 | Stoichiometry = C21H24Cl4NO2Ta | MND = 6
C        -0.10711453191236    6.00964675847455   13.75041354615818
C         0.08692658686866    5.70409236940389   15.11447774597343
C         0.69986622236376    4.50519445735127   15.42939905829696
H         0.84878608052887    4.26488447176540   16.46776250869235
C         1.13897117567831    3.58334403303333   14.47370819437668
C         0.94209717269478    3.89144241773843   13.14335372857662
H         1.25417694816069    3.22461753826804   12.35819077577693
C         0.32523034276486    5.08968171049541   12.76730925169384
C         0.13869127676404    5.37652167881567   11.36764027177525
C         0.27451093846582    5.00183581431048    9.24839030029511
C         0.50380779911945    4.48858002598438    7.98538231217637
H         0.98019989477440    3.53257541670039    7.84453798378295
C         0.08833105839438    5.27171077285733    6.92407536975384
H         0.24478119082071    4.91709715169029    5.91715696211865
C        -0.52697435481881    6.50906514142539    7.12120776297376
H        -0.83114002145354    7.08185156083284    6.25892755939705
C        -0.75723240274489    7.02093077931131    8.38288585408092
H        -1.23175995501596    7.97532491935289    8.53981217960045
C        -0.34589036454876    6.24489687209994    9.45899103171166
C        -0.38402087002260    6.69423034886788   16.16950730585732
C        -1.90218970649814    6.88284054860272   16.03240913013593
H        -2.25293655063303    7.59699262859426   16.77340462531158
H        -2.41355998379258    5.93579532646442   16.19381437022801
H        -2.17318157038926    7.25558948343973   15.04686760927172
C         0.34261341080337    8.03125837850990   15.96076328342602
H         1.41758574230904    7.89313452329305   16.05965629325141
H         0.01525625470657    8.74879581254433   16.70916059454862
H         0.13898355979167    8.45018449111174   14.97754574699921
C        -0.09300821365794    6.21528850425811   17.59544054977876
H         0.97434759496163    6.08553337542201   17.75850367424200
H        -0.60881409433921    5.28273509079504   17.81202993332321
H        -0.44896891137632    6.96352766983801   18.29954222531916
C         1.80125596963409    2.29491034765391   14.93533980970267
C         0.79926525620308    1.49733726826182   15.78184071989448
H         0.49849565446007    2.04894672441301   16.66781363159189
H         1.24622978488235    0.55877873267568   16.10121366884369
H        -0.09176852178107    1.27495553789845   15.19920979013303
C         3.03911515895509    2.63847573575802   15.77580697853747
H         2.77396552788419    3.19363620222399   16.67072295707142
H         3.73380940221194    3.23960692360590   15.19370805185339
H         3.54509285297362    1.72575523004510   16.08174651618685
C         2.24782521003857    1.41642160809783   13.76407310995085
H         2.72166301852057    0.51590259547429   14.14852468550304
H         2.97089202199719    1.93553113659281   13.13986068220510
H         1.39956894764845    1.11401904410492   13.15518174509188
Cl        0.84135739555648    9.11203088690803   11.80723475541995
Cl       -3.26136020092059    6.92016726649737   11.97522538373803
Cl       -2.07638260873122    9.77581301676158   13.60626828291740
Cl       -2.03934641926054    9.45421053227295   10.36967028090477
N        -0.41250663029840    6.44105692497869   10.82183129594797
O        -0.67685997492090    7.11418939761452   13.33874933405937
O         0.56825013723644    4.47857541630226   10.46739773583608
Ta       -1.32863370105086    8.25847940021058   12.12071284570838

