91
CSD_code = KEQHUJ | q = 0 | S = 0 | Stoichiometry = C38H48Cl2P2Pd | MND = 4
Pd        5.39249752986043    2.03029999067097   19.44011976605514
Cl        3.88430639486833    2.76045408783243   17.87335330191206
Cl        6.85872391249129    1.20353421351718   17.88157654290739
P         6.77016059661722    1.28189941826161   21.03748808566220
P         4.05732699002661    2.87760309716178   21.02404626187036
C         5.80822174319644    1.46316760277275   22.63183996414379
H         5.09158395053635    0.63848587508694   22.69701441468787
H         6.45104994444872    1.41596725230938   23.50900829799588
C         5.06200851277878    2.79573581579957   22.60014710367596
H         5.77949451530605    3.62222545976043   22.59415073164650
H         4.44315115118951    2.89843561644407   23.48970240975318
C         3.49771224595420    4.58739624781421   20.76603452548100
C         2.12720029135307    4.83644833173739   20.71319751706680
H         1.43515423468544    4.02262220866296   20.86767840099856
C         1.64641680528790    6.10033786909296   20.43636317845304
H         0.58175801922690    6.27804899680722   20.40288906477408
C         2.53696718358187    7.12971833222607   20.18612957824473
H         2.17328926222624    8.12396136629324   19.97266333822961
C         3.89500073588166    6.87354499558879   20.17103916867836
H         4.57717562912946    7.67340582112604   19.92493495795421
C         4.40076675071014    5.60698365793449   20.43890967562092
C         5.87928187620939    5.35114309423664   20.28966405735424
H         6.10179043391371    4.33194862684622   20.64331636681715
C         6.25361537337528    5.40149471363812   18.80190439464011
H         5.84419600034036    4.52581271121178   18.28419797820998
H         7.33483397433581    5.40635633861304   18.68541934368791
H         5.85085832498051    6.29389696292537   18.32867576554602
C         6.72205247467997    6.32766479995783   21.11159508440270
H         6.36993171636008    6.36896212565701   22.14139149668360
H         6.67777810426511    7.33035642626108   20.69487398171081
H         7.76202419466838    6.00680290811286   21.11504562527117
C         2.55412048999315    1.89065700956120   21.35446413196488
C         2.30643630546774    0.94770949678770   20.35379364416041
H         2.95481802306883    0.92910581903747   19.47949397012269
C         1.23809969207915    0.07569408934019   20.43636639539492
H         1.05156403599671   -0.63356787790710   19.64387406876591
C         0.40906432527714    0.12399526658760   21.54304250930538
H        -0.42055641593982   -0.56143722324272   21.63574737301536
C         0.63429221485674    1.06842573905573   22.52732756595988
H        -0.03290813987370    1.10518665812667   23.37531506480147
C         1.68182481320281    1.97990860747260   22.44997794631939
C         1.81950413088438    3.02292063082011   23.53427731047048
H         2.59358465415819    3.73574226946609   23.22982860170698
C         2.21682325488387    2.36267877047526   24.85934671790877
H         3.08527426114972    1.71768042346510   24.73793090945208
H         1.40046004044337    1.75074570062906   25.23531531931838
H         2.44589076774465    3.12031650441079   25.60592767428126
C         0.52789445772626    3.82268568141471   23.72761835964882
H         0.20802618625124    4.27578328666475   22.79329790333311
H         0.69653789056611    4.61742740362473   24.45106544602989
H        -0.27695508466804    3.19367059321779   24.09826937974131
C         7.32362819922596   -0.44129837310436   20.87196727061746
C         8.69242808412744   -0.69442893123227   20.79832169705941
H         9.38762958335161    0.12691273389582   20.88310444957786
C         9.16666498213440   -1.97356958663033   20.58835315078673
H        10.23018982717136   -2.15402114190870   20.53788366235027
C         8.27053567629686   -3.01573877070131   20.42661337383512
H         8.62913421437793   -4.02171002259765   20.26607178376704
C         6.91239370476678   -2.75974297560731   20.43158199499040
H         6.22455361372816   -3.57278458569409   20.25397944283807
C         6.41293908246093   -1.47848290078633   20.63325333674726
C         4.93080461251967   -1.23111967723633   20.50734036890088
H         4.71682157532902   -0.19184907071121   20.80312685972486
C         4.11047782712504   -2.15439638844512   21.40958243179043
H         4.48901073985339   -2.13214086328749   22.43055071989031
H         4.14495844763975   -3.18097231088797   21.05467050868775
H         3.07062383882565   -1.83330690563959   21.41994427861348
C         4.51781452596946   -1.37306070690203   19.03581097291360
H         3.43392494748213   -1.38340259690865   18.94797235418331
H         4.90808068759310   -2.29380763780091   18.60864683403443
H         4.91363697841512   -0.53191555711836   18.45421757242640
C         8.28077405294522    2.28641617616618   21.26574831028137
C         8.50047354632632    3.16550908208357   20.20235128091023
H         7.82940113689910    3.12966378522483   19.34589266925342
C         9.56887296164570    4.04133742051628   20.20267810779093
H         9.73322280636434    4.70019273824901   19.36316138597578
C        10.42661545098279    4.06211416196868   21.28813926006599
H        11.25687107479560    4.75243617517467   21.31651687713508
C        10.22921475121603    3.18024940096405   22.33446326667748
H        10.91855708320362    3.19617131727311   23.16521391475073
C         9.18177362642399    2.26538802798087   22.34128618515402
C         9.07525122566085    1.29130697026089   23.49123176223801
H         8.29358221217358    0.56171941448724   23.25314488384053
C        10.37260194715131    0.50398982947687   23.69705368732222
H        10.22483656935797   -0.24543483728484   24.47160965254929
H        11.18657966679437    1.15391109824255   24.00666691958493
H        10.66730116042168   -0.00498555278273   22.78347029695880
C         8.71471410290246    2.03214005845362   24.78381040445759
H         7.84249413979815    2.66901045186991   24.64745001392051
H         9.54069046781005    2.66548928000576   25.09828607984499
H         8.50759609296591    1.32206745738964   25.58178130577395

