147
CSD_code = KEQJUN | q = 0 | S = 0 | Stoichiometry = C60H78N3O3P2Y | MND = 6
Y         5.70356742947045    3.15358038569041    2.32308232539740
P         5.54148016557137    6.37189811261120    2.48269835064924
P         4.70669277526215    1.66318160302166    5.07835201708993
O         7.14138964637400    4.63772750427882    3.07956143497313
O         6.86045397217455    1.39471369322952    2.92756358116405
O         5.83217501304279    3.12122684935067    0.31368912426193
N         4.50566125209381    5.14617010927675    2.43540197912811
N         3.26360260791384    2.91254641005937    1.20720298422649
H         3.41938697788827    2.30360731228973    0.41152158337864
N         4.11906808353707    2.13160951478809    3.67112997151113
C         3.20827277071423    5.32026786955389    1.77793070741948
H         3.10216912254355    6.30342580152470    1.30126205451465
H         2.41335338413359    5.24423150892200    2.53362315321006
C         2.97203467154476    4.24853974412983    0.70702827810841
H         1.93141793877732    4.33561145769521    0.34658916248881
H         3.65791943673982    4.43336047757829   -0.12291860290096
C         2.27805089800252    2.33283578139717    2.10900948278735
H         2.22257998735233    1.25640275259471    1.92287869431586
H         1.27760062535230    2.76671852763140    1.95790726620827
C         2.71212798216330    2.53079669191213    3.56955307279085
H         2.56342503737732    3.57725308230257    3.86054657312469
H         2.07093846313610    1.91383598820496    4.21517663612511
C         6.47353583804129    6.59792789849912    4.01301154818405
C         7.35203321357038    5.50116532999579    4.05085483065206
C         8.36873264615296    5.50910553767830    5.03153440524661
C         8.40468481588852    6.59353547974235    5.89207192397329
H         9.17603291947258    6.61154175122270    6.64428563034826
C         7.53938765151021    7.69065610396726    5.83661381452535
C         6.55894284482673    7.68955320098321    4.85824245576775
H         5.87959362152611    8.51706280296557    4.72686611908338
C         9.40222734036065    4.39586909448293    5.07374215458849
C        10.08450452591832    4.32901726659674    3.70054219229297
H        10.57618123710710    5.27564696021817    3.48076893922142
H         9.35081144379206    4.13462078534095    2.92164571640652
H        10.82985389280242    3.53705419319999    3.68447233911691
C         8.68307013619768    3.07833417624596    5.37786339565123
H         7.90485216607006    2.89452132464656    4.63887022932539
H         8.22158562497807    3.12093952687703    6.36315557879250
H         9.37924421846026    2.24283140509563    5.35850229905862
C        10.48313393046036    4.60947614806360    6.13778506434356
H        11.18970550621975    3.78260514447619    6.09766182267789
H        10.05369282250248    4.63388991668844    7.13737023713492
H        11.03405096240746    5.53068949558197    5.96044027655266
C         7.75158958062002    8.86315413675196    6.78567910473192
C         9.15610421324540    9.44024875187046    6.55542110415931
H         9.92576635197683    8.71008540029970    6.78879015443950
H         9.31298147813821   10.31450875381980    7.18451665383574
H         9.27334151124614    9.73741196119486    5.51544153707413
C         6.73513891259880    9.98713227366010    6.56129842295064
H         6.82124002827482   10.39951311716701    5.55863701906103
H         6.91931218493794   10.79055284870523    7.27222534856531
H         5.71754162311792    9.63282819865547    6.71115170104845
C         7.62215884838660    8.39448300877196    8.24080028260101
H         6.60194738739259    8.07330536874198    8.43910540994022
H         7.86215050875686    9.21008727586603    8.92059677973892
H         8.29196449848116    7.56531421351711    8.45098808104146
C         4.55770155437335    7.91684926685580    2.40271732588478
C         4.61936067174159    8.84441464524610    1.37396280599757
H         5.29640969829832    8.68605814927303    0.54619323938812
C         3.81654237984972    9.97318863843804    1.41005163793859
H         3.86903260035818   10.69452957326213    0.60733201814215
C         2.94849406450092   10.17940522034407    2.46853052342299
H         2.32749049414509   11.06285244330787    2.49420242183291
C         2.87189375662016    9.24838838393682    3.49328414299147
H         2.19053300835213    9.40550220280758    4.31734589209441
C         3.66955362344931    8.12127811558806    3.45453298153738
H         3.61670515641586    7.37579266071530    4.23832044721381
C         6.79282506892841    6.66620531705749    1.17773211814985
C         7.71928104016254    7.68397545774278    1.38488396276941
H         7.69527842814336    8.24638923179592    2.30868769439719
C         8.66240406942485    7.96719763487256    0.41544154568704
H         9.38524031860598    8.75395259076363    0.57885439266824
C         8.67906148307787    7.24241800105835   -0.76624115947315
H         9.41615170085355    7.46499796879257   -1.52450396392671
C         7.75684494164584    6.22984618627237   -0.97017302266356
H         7.77828527037462    5.66547061625248   -1.89190505283055
C         6.81005455552626    5.93706200084056   -0.00150249838330
H         6.11195888060641    5.11806060647049   -0.12938806443255
C         6.06810390869397    0.49940491016400    4.96476130109668
C         6.98705388538766    0.52780358567073    3.88696993306114
C         8.03758478727766   -0.44764189125137    3.94808767946770
C         8.09436809350264   -1.31953348624577    5.01602120356506
H         8.89012589374041   -2.04124683517113    5.03528955515298
C         7.18372121265155   -1.33130320818448    6.07372452913968
C         6.17142344062270   -0.39882848177942    6.02532033702091
H         5.42280667968410   -0.36355296919224    6.80502619982418
C         9.06954892993716   -0.54468376165593    2.82853845811092
C         8.33098049277594   -0.91579489096707    1.53825302602459
H         7.85917202882629   -1.89160537538914    1.64411622743460
H         9.02263267678171   -0.95245565490831    0.69882368696020
H         7.56547997667483   -0.17893024075600    1.33233492081512
C         9.78550110411186    0.80143487525180    2.67085598080288
H         9.06713423019132    1.61045132951869    2.58292978853770
H        10.41733874464396    0.79357606896329    1.78447792700413
H        10.41364014206797    0.98879349610097    3.53982683964567
C        10.14766134287783   -1.60906240313378    3.06932230327823
H        10.70623692539210   -1.41387053829083    3.98238376266985
H        10.85034294710456   -1.58662503776810    2.23811244264163
H         9.72094640337892   -2.60869812128604    3.11574628288395
C         7.24741175083122   -2.31632710509564    7.23181631092993
C         8.45184420463282   -3.25684596390258    7.14306543232829
H         9.38451578607777   -2.69786482497812    7.15555870292388
H         8.41007543602729   -3.86121492328878    6.24015000017133
H         8.45101456775384   -3.93074264321271    7.99792316514519
C         5.97017819676991   -3.16905599733173    7.22744832561045
H         5.99229863769110   -3.88813303477858    8.04417512679549
H         5.88753201221910   -3.71345856571494    6.28910300950902
H         5.08271755503102   -2.55090063231393    7.33974755702616
C         7.34417238455936   -1.53979591081965    8.55287743823513
H         6.45931773680308   -0.93050591342130    8.71829803034562
H         8.21413676824695   -0.88631685745369    8.54106981273293
H         7.44017493460084   -2.22890325100688    9.38979978283719
C         3.40675192471612    0.78612302069557    6.01345564578537
C         2.98495494882966   -0.42617868849414    5.47554690537786
H         3.47988987514285   -0.79799878489955    4.58747203359757
C         1.96720344386154   -1.13798994909243    6.08046521373157
H         1.64733208751214   -2.08391612965841    5.66873680301903
C         1.35826980450948   -0.63538304111219    7.22102276083558
H         0.56495674353135   -1.19142036853431    7.69829370378167
C         1.76405129410485    0.57925196122553    7.74765599875515
H         1.28492243767662    0.97141786531254    8.63290223298073
C         2.78493244620797    1.29509897633323    7.14377361642673
H         3.10467293201135    2.24250972404954    7.55506327867570
C         5.20120624652709    3.01328600530018    6.22186086030104
C         5.84071940789700    2.71730425886993    7.42296043938302
H         6.09738371284982    1.69300442563908    7.65104196295637
C         6.15036569167952    3.72996339660695    8.31026457672418
H         6.64820805362872    3.49826922620529    9.24101599937852
C         5.81816725362094    5.04078457470925    8.00717767865135
H         6.04974592867912    5.82703775359625    8.70907065104406
C         5.19799122013507    5.34162664868344    6.80718012484037
H         4.95296627913947    6.36590085835339    6.57088585772918
C         4.89821217116875    4.33261529013925    5.90756045350962
H         4.43411349233519    4.56434879840215    4.95508148293862
C         6.34541801915645    2.20881703975985   -0.59743583752391
C         7.87515396815991    2.12686467530900   -0.43516333205283
H         8.31571565005827    3.08991766643027   -0.68825309508099
H         8.31003747277704    1.35585889797626   -1.06760370102687
H         8.09754217204817    1.91715370518337    0.60990475754126
C         5.70465662905649    0.81598591241823   -0.37823842349987
H         5.64278452857547    0.62283513703403    0.69654685603174
H         6.28675255823120    0.03225134997221   -0.85774990944278
H         4.69633549222009    0.79609697326478   -0.79170721793832
C         6.01713382727961    2.67064553805339   -2.03553200181358
H         4.94132696015993    2.78592207767796   -2.15393312904130
H         6.37750358717723    1.94256373238819   -2.75828585676012
H         6.48696242963131    3.62992078446705   -2.23399426002729

