49
CSD_code = KEQKAT | q = 1 | S = 0 | Stoichiometry = C24H18CdClN4O(1+) | MND = 6
Cd        2.87295694334682   17.59846136020334    3.48961790446790
Cl        3.58952759434590   16.29470013175428    1.67640272119216
O         4.43200586620641   15.94851050272333    4.53979262152243
H         5.35351701568634   15.98073086447083    4.81767110589966
H         4.43765829762152   15.58185291141823    3.63392148963871
N         4.49148588690859   19.20255841221614    3.26312968714557
N         2.78233850217722   18.90477869115520    5.36999035643061
N         1.15334424843950   16.16006047994164    3.87939416993835
N         1.05805125490834   18.43133922068552    2.34941981573642
C         5.31856531089866   19.32088399073272    2.24656206330107
H         5.20114105393228   18.59577551073972    1.44924770984653
C         6.30327022168254   20.31373119374200    2.18418105227599
H         6.95704814719406   20.36779092170339    1.32869158942910
C         6.41690004899470   21.20448458104481    3.22407677412093
H         7.16307038874226   21.98514592223021    3.21297368995444
C         5.54818532022566   21.09401391537588    4.32483997174865
C         5.60644297074388   21.97251772433892    5.44508008525026
H         6.34754636937762   22.75724024543530    5.43908582217404
C         4.75747925637855   21.82565263187487    6.49029348716413
H         4.80411971694582   22.49059882794261    7.33924229425518
C         3.78056006874948   20.78849557020347    6.50226271965468
C         2.88851923061396   20.59822606321536    7.57193218094804
H         2.93377643965596   21.25772513483051    8.42585279044624
C         1.97491013659986   19.57369380542085    7.51145702460148
H         1.27807917347517   19.39992009605995    8.31547943253577
C         1.95886567531733   18.74823710473304    6.38243354221344
H         1.25019158147924   17.93377248698316    6.30092104537478
C         3.68551325159410   19.89908705430416    5.40691103842043
C         4.58778257083484   20.05724410238513    4.29610844842769
C         1.02025713305165   19.51988804310018    1.60984261060980
H         1.74821791183235   20.28798049148612    1.84828442875385
C         0.10521416732865   19.70913252120340    0.57047956490848
H         0.12234928079201   20.62174262052242   -0.00334209929833
C        -0.79895232804088   18.71183607952652    0.29587243730128
H        -1.51722891753221   18.81307905780353   -0.50414637557819
C        -0.78274741542622   17.53733603450061    1.06701764681584
C        -1.68176221519614   16.45764169203308    0.83130964056046
H        -2.40250341580688   16.56030817473810    0.03436500577577
C        -1.62571281799406   15.33042448889421    1.57884648761208
H        -2.30001763421049   14.50803111685953    1.39399707805988
C        -0.66944757307266   15.19280392666408    2.62594718750507
C        -0.57199258085300   14.02888184991092    3.40786524023700
H        -1.24155025927026   13.20327500567328    3.21736468896734
C         0.38017400395775   13.96075526477496    4.39554600571248
H         0.48721118553186   13.08023395665318    5.00841356500741
C         1.22515546350659   15.05689933826063    4.59502135421519
H         1.99102287836904   15.03324096512867    5.36180972016494
C         0.23357854113673   16.24570369278887    2.90071118730667
C         0.17918204859922   17.44277622132195    2.09982199144357

