49
CSD_code = KEQMAU | q = 0 | S = 0 | Stoichiometry = C20H17CrNO10 | MND = 6
Cr       -0.83216357047965    3.44909473473989    3.87223074507443
N         2.16460536773967    0.59428677229663    4.70146416581507
O        -2.88315135016631    0.72895004927381    3.22759751896570
O        -2.05724190405139    1.18521359273317    1.17601463966720
O        -0.82244903955327   -1.18789240235172    2.20756531529701
O         1.30415809488950   -1.45564438352483    2.89111234041295
O         3.94947396189757    3.72980493539894    1.07200221138111
O         0.22216149151339    4.64570401607225    1.31689170176062
O         1.79279642389404    3.62522029538443    5.31754015122320
O        -3.64402393838681    3.96781145250015    2.88568442091111
O        -0.96052391863396    6.06932891485051    5.36240759992567
O        -1.52803458512667    1.61716537864559    6.15272466506662
C        -0.67954734315298    1.56749628420964    3.02570652329407
C         0.34060123563602    0.67631515877610    3.11650937630646
C         1.67451389594246    1.09279958509902    3.57713985720372
C         2.43677119474126    1.95328288649029    2.74335973130289
H         3.33710363961600    2.40375970633333    3.13400213457475
C         2.09710655819448    2.22785109270455    1.45176400407553
H         1.22038850795652    1.77687963183370    1.00941474724444
C         2.83787252946669    3.09631395963795    0.61314330790326
C         2.61615396380605    3.46373489682034   -0.70357323105185
H         1.81027370883798    3.12926339192617   -1.32339526011639
C         3.64002336780686    4.36251512402012   -1.04383166201489
H         3.78541376151821    4.85545652266837   -1.98280652034669
C         4.41804083904240    4.48426847719829    0.07401354945322
H         5.30150305680149    5.06130738247366    0.26686136625588
C         3.52944104971560    0.82060024187626    5.11871853720539
H         4.21405809218422    0.67242579610440    4.28431675671782
H         3.78172350934040    0.11309133322246    5.90552991382398
H         3.65120292192879    1.83469257356146    5.50693408906989
C         1.35324182249773   -0.15285025386087    5.62838289894027
H         0.30313305213261   -0.09225988124243    5.35064964356073
H         1.47692311455829    0.26166680231844    6.63062413035615
H         1.65632130550944   -1.20227160663912    5.63761832170517
C        -1.96673192307620    1.06897662020746    2.51365336938320
C        -3.29415436351283    0.77142295636436    0.61505058458620
H        -3.41324229485911   -0.30629776542953    0.74057225797492
H        -3.25467664729405    1.03411115005982   -0.43907025344841
H        -4.12345760369975    1.28099656677733    1.11022194149075
C         0.17755566725062   -0.72403376049562    2.69817741166008
C         1.22411359141523   -2.81129535796713    2.47954285822841
H         0.42476275914247   -3.32584801668970    3.01687287832628
H         2.18924778171309   -3.25677977334525    2.70841777600526
H         1.01953806046828   -2.87241375123689    1.40885559252374
C        -0.19944652123436    4.23175253281959    2.30257926089181
C         0.85250002849868    3.45005952557585    4.66348867716667
C        -2.59126401837594    3.69119363546024    3.23559744553003
C        -0.95968692536702    5.07519552304824    4.78026417310678
C        -1.35332840863003    2.37287745325955    5.30735833563226

