65
CSD_code = KEQNUS | q = 0 | S = 0 | Stoichiometry = C30H24Br4N2O4Zn | MND = 4
Br        1.66708845594273    5.23111171743702   -0.48714700274895
Br        5.48511418480614    2.44015775555587    2.65187512630473
C         3.99500150077078    3.58862694701294    2.49635138984638
C         3.47292756439394    3.89212255111795    1.26962583367453
H         3.89324577388662    3.47221035525166    0.36858707595668
C         2.38338715686014    4.76306533830456    1.21137761198733
C         1.83715492405555    5.28533801518493    2.35411700374857
H         0.98458289850198    5.94520524234632    2.29298310930696
C         2.37417613382484    4.98341585280247    3.61840464057042
C         3.50486079857851    4.12163216305607    3.71966538731903
C         1.71159187354014    5.51783458249066    4.76255857970902
H         0.75374977135139    6.00618013372877    4.56231280702493
C         0.32350160387200    4.53518280933289    7.29563627304260
H         0.94490076696512    3.78146971827693    7.78695103970801
H        -0.50805013928754    4.81135474935279    7.94745493043131
C         1.17861026913822    5.80268559568774    7.01786207526711
H         0.49577103553998    6.58048737160126    6.63909171627399
C         1.89656336855070    6.32084195053300    8.23961417076997
C         2.88816265083173    7.28020320211221    8.05574717179273
H         3.07225240105078    7.65666415159667    7.06016701321603
C         3.59646751696072    7.79035362846431    9.12876019228920
H         4.36460294758907    8.53180003991591    8.96348836718600
C         3.30591318132751    7.36502189410905   10.41350920981029
H         3.85120153727320    7.76357414323086   11.25556972401677
C         2.29710056320358    6.43915177013922   10.61039652697243
H         2.04830224538671    6.11769973097191   11.61084823128844
C         1.59771228341972    5.91662461109291    9.53462599813297
H         0.81934564851743    5.19498468249399    9.72035966367199
N         2.12286241897195    5.44471934536137    5.98082236306225
O         4.08697440379100    3.78729787275347    4.80999365008982
O        -0.25333198204847    4.03634887034341    6.11897880872744
H         0.36288915283278    3.43514324295539    5.68779002581641
Zn        3.88597123021048    4.68397652055275    6.41018387094983
Br        6.10478931643017    5.23117836580985   13.30751771466783
Br        2.28683870635832    2.44012415687128   10.16849053844335
C         3.77693592954072    3.58861457013412   10.32401468659328
C         4.29899715247395    3.89212907353774   11.55074118455612
H         3.87867661525753    3.47222091499809   12.45178086613106
C         5.38851784112724    4.76309578544169   11.60899073126241
C         5.93475412224208    5.28536184523006   10.46625056839014
H         6.78731825558542    5.94523952466501   10.52738246990007
C         5.39774634256855    4.98342012014350    9.20196210246134
C         4.26706739991869    4.12162844576401    9.10070036404603
C         6.06033869023386    5.51782852076607    8.05780817602991
H         7.01818090114511    6.00617322647448    8.25805434023454
C         7.44842018429230    4.53515201036058    5.52472829655470
H         6.82698946867892    3.78142069677567    5.03348331029310
H         8.27993271690564    4.81129053032367    4.87284837877564
C         6.59332936773104    5.80266462267246    5.80250187588297
H         7.27618035769874    6.58045614747345    6.18127366747068
C         5.87537433683932    6.32083561871804    4.58075616289389
C         4.88375930419487    7.28017746134605    4.76464139539761
H         4.69966075069789    7.65661329174502    5.76022985470529
C         4.17544641803633    7.79033700829599    3.69163832701944
H         3.40729861069071    8.53176667183794    3.85692566814382
C         4.46600951208021    7.36503671196645    2.40688092612070
H         3.92071958702395    7.76360000569297    1.56482723229724
C         5.47483812141758    6.43918804247592    2.20997605739392
H         5.72364560187263    6.11776491210119    1.20951680274348
C         6.17423284629441    5.91664905911892    3.28573696530220
H         6.95260922208811    5.19502291779673    3.09999104467365
N         5.64907387383434    5.44470528339646    6.83954320964873
O         3.68495621598314    3.78729113529297    8.01037214123009
O         8.02531813302964    4.03637317588897    6.70137824025823
H         7.40913995712430    3.43515359172503    7.13259411526194

