72
CSD_code = KEQQOO | q = 0 | S = 0 | Stoichiometry = C28H38N4OTi | MND = 9
Ti       14.39192367547939    1.17973292322175    1.03721390161593
O        13.09432179083979    1.58230729837488    0.02054591235183
N        15.16642142995929    3.01429708958106    1.20955230822062
N        16.15169382956007    2.13894785753709    0.98299832141250
N        15.20208207762381    0.05547614482391   -0.32896327608629
N        15.38981863672820   -1.25733389188978   -0.21110287221844
C        12.82174879817252    0.53347143175705    2.60261373417799
C        13.58750859656631    1.56648847336835    3.21065268779533
C        14.92261466673795    1.10210672267248    3.35611666048983
C        14.99896925309282   -0.19859016073676    2.80519475949242
C        13.69450914363955   -0.56527933152357    2.34980894911210
C        11.32601094158253    0.54505491893512    2.45198926534882
C        13.03796962371875    2.84514635532456    3.77479389979296
C        16.01424835982755    1.81493907054195    4.10102238318026
C        16.17123066507876   -1.13269363453219    2.87002220004512
C        13.30194445469003   -1.96576731943099    1.97731490935516
C        15.68952434628262    4.23898162321446    1.28240046511988
C        17.06365926403910    4.15654948699923    1.08628836468218
C        17.30420421816816    2.79968184974425    0.89405700467660
C        15.69157083218722    0.47986442711799   -1.51261557787858
C        16.21731753304649   -0.60729395612006   -2.18417553222724
C        15.99714453588642   -1.67768109402102   -1.31216484041762
C        11.92989897894822    1.78995946016737   -0.57793166961790
C        11.23661254101453    0.72238416431686   -1.18326927054315
C        10.00843386118093    0.97135041474135   -1.77436113671655
C         9.45850351814133    2.23985029690847   -1.77409738284925
C        10.15019114433778    3.29225400757725   -1.20008603371168
C        11.38148955030616    3.08976876361922   -0.60181478647680
C        11.88921943168998   -0.63828215866614   -1.23832620469922
C        10.90625468882122   -1.78677133362611   -1.00989359263333
C        12.58399779858171   -0.79847306336281   -2.59495405790130
C        12.22074294975229    4.21084075102057   -0.03480368576803
C        13.25651858724787    4.60594533440323   -1.09661488051815
C        11.41325039324425    5.42762954404574    0.40960325849405
H        10.96509529474911    1.51863802817512    2.11763259739997
H        10.85375925593030    0.32162461730281    3.41247600428485
H        10.99680355542632   -0.19906681478794    1.72958605869712
H        13.76526785362347    3.65358123977426    3.70463975031905
H        12.78806615079194    2.71117556392560    4.83067037839605
H        12.13139286800878    3.14758574890883    3.25218472021183
H        15.95114620728748    1.58061375942165    5.16688259283521
H        15.93147824537982    2.89643031402509    3.99229526004658
H        16.99844402698306    1.51038922943360    3.74695313898868
H        16.08561078879747   -1.78223103685459    3.74526628572891
H        17.10888269025276   -0.58358260966908    2.94509322514657
H        16.20253631433493   -1.75702214492155    1.97813964759783
H        13.45757052376604   -2.62405030662775    2.83521911512301
H        13.91798582611992   -2.32947958160843    1.15444108611955
H        12.25382927632925   -2.02197562871100    1.69324047968097
H        15.08341228829006    5.10585111703280    1.47423523554255
H        17.77549660254229    4.95754461121705    1.08481845315094
H        18.23108936317859    2.28780609396721    0.70809424022302
H        15.63733701461411    1.52053007038773   -1.80804868760361
H        16.68254898789860   -0.62630289710873   -3.14969943593895
H        16.25095448899491   -2.71344976290548   -1.43984280285579
H         9.47267646938546    0.16310901335910   -2.24764488597571
H         8.49781230772088    2.41338903873556   -2.23542401379217
H         9.72134982085199    4.28165074118335   -1.22622405819703
H        12.66230311997362   -0.67196994612803   -0.45642434060027
H        10.24228830282111   -1.90919731729186   -1.86240077729458
H        10.29617128231037   -1.61073000250578   -0.12591609983283
H        11.45344349707176   -2.71714934160358   -0.87570561566502
H        11.85453163134190   -0.76630789612719   -3.40240603305598
H        13.11461972793434   -1.74690453729911   -2.63692120895160
H        13.30413935979955    0.00408669788505   -2.74453297170452
H        12.76390378382351    3.81081584144704    0.83503586898192
H        13.90896082490987    3.75742946363596   -1.31371864606634
H        13.86972380457295    5.43439353479457   -0.74893045727763
H        12.75532484548566    4.90667190381252   -2.01528730310011
H        10.59696688481489    5.13249697915491    1.06554074648039
H        11.00024065623553    5.95716935120902   -0.44578219762600
H        12.05558594148001    6.11917439927818    0.95115046549190

