68
CSD_code = KEQQAA | q = 0 | S = 0 | Stoichiometry = C25H33ClF6O2Ti | MND = 8
Ti        2.70273119720695    0.75281744094665   10.26185276337563
Cl        3.36943689327174    0.69862835700341   12.38006640082185
F         0.28021961453139   -2.77269467039495   11.63794835445395
F         0.90843485968223   -1.76907866251649    9.83159032834580
F         2.24412783618192   -1.90163308218593   11.50618583503367
F        -1.47009510767293   -0.47183075093805   10.25872973673882
F        -1.46334444165241    0.99749419494201   11.82568665061769
F        -1.72704474047215   -1.07821438067224   12.31069245756982
O         3.45495925663938   -0.56708651017696    9.55617898657276
O         1.01340600864629    0.57173547075888   10.79850243805749
C         3.78481712604682    2.05506979876891    8.72108528045436
C         3.97993047649658    2.64104113886785   10.00177444711958
C         2.70644127656281    3.07905577931878   10.48877689633905
C         1.73461372282426    2.76287883095478    9.51935608603189
C         2.38458001016290    2.09315023752135    8.44145835564429
C         4.86079291445761    1.62087436874013    7.76509695131890
C         5.28610717654006    2.96982584381518   10.66565645139471
C         2.50381869908074    3.86715896467132   11.74745810398416
C         0.28283098857186    3.13459110242003    9.53635091514886
C         1.70772166841903    1.73544181841688    7.15038195329175
C         4.31195613419031   -1.41067628590358    8.97484762002860
C         3.94301216661542   -2.13002463125058    7.82147859812436
C         4.85082250852688   -3.01615870683737    7.26091246990866
C         6.10759768366898   -3.19508870020094    7.80421454885887
C         6.47998640153707   -2.46351925011762    8.91683305425296
C         5.61012590551028   -1.56204564273184    9.50748154750977
C         2.58124684565010   -1.94112587376526    7.19489730150503
C         2.70197886545881   -1.52018873942149    5.72685997212432
C         1.76125910419471   -3.23013357495973    7.29676761903868
C         6.01130742775289   -0.76872634246665   10.72720058760459
C         7.45480539693061   -0.26630313547271   10.66185724077753
C         5.79885897283404   -1.62191254393619   11.98183639434824
C         0.46758177688317   -0.34175534195815   11.63223359763835
C         0.95243965259006   -1.72308064214021   11.17211990811495
C        -1.06485243507432   -0.23651476521113   11.51012358544718
H         5.09503180981631    2.43510949066167    7.07442098132654
H         4.54832211018474    0.75665433413324    7.17935716812402
H         5.77346659051101    1.35123916783706    8.29448878346487
H         6.12434670356952    2.51916227171335   10.13847099677920
H         5.29463680486120    2.62402869529449   11.70102375410070
H         5.43041836841827    4.05249478934287   10.67292418794621
H         3.12004394032850    3.47080076744683   12.55433527129854
H         1.46201675051107    3.83783948540298   12.06206537958254
H         2.78379007742964    4.91095627084306   11.58520457837467
H         0.13067686139790    4.06620309085427    8.98552169366891
H        -0.07663349116938    3.27675149035034   10.55367138058003
H        -0.32183742262142    2.35920406932136    9.06675683445320
H         1.32276495967189    2.63989798985820    6.67361514947013
H         0.86299336957188    1.06397796611992    7.31941896706869
H         2.40141851263150    1.25965799603124    6.46251221338125
H         4.56729738959547   -3.57754951094914    6.38395285512863
H         6.79716529973863   -3.89662521202013    7.35957035334555
H         7.46621285410098   -2.59770810115969    9.33230768264746
H         2.06225934973707   -1.14547719007735    7.74779604568925
H         3.08648468559191   -2.33755457469752    5.12181126999625
H         3.37853227479102   -0.67522182743759    5.61457337260025
H         1.72603504731101   -1.24037287683447    5.33660550840951
H         0.74274333468333   -3.05533004478004    6.95894683709561
H         1.72836548140551   -3.58473818518584    8.32282631601464
H         2.20165016420018   -4.01121323605559    6.68110769777412
H         5.34481830681052    0.10506200392508   10.79219629150219
H         7.62523252540361    0.45754412225041   11.45545461459141
H         7.66031482275437    0.21012452796499    9.70486768469348
H         8.16143506835395   -1.08126953223504   10.79708377564409
H         6.03198214638443   -1.04188988193940   12.87112925601154
H         6.43747075186521   -2.50285746986471   11.95308525048183
H         4.76105733123392   -1.94194318836076   12.04491515092073
H         0.74827537814730   -0.19412881165037   12.69738926023861

