49
CSD_code = KEQSEE | q = 0 | S = 0 | Stoichiometry = C12H22Cl4N6O4Pt | MND = 6
Pt       -0.00006788736352    0.00000159533084    0.00020696976063
Cl        1.73082577133938    0.22528741405629   -1.60618729737876
Cl        0.37783039880098    2.24566475448790    0.66379053331453
O         2.90199417102044   -1.44728593733915    2.74453147760916
O         2.55112892927274    0.87257181206928    8.09054211268960
N         1.25248454726853   -0.50667612808467    1.48232900986910
N         2.40107457538497   -0.62844970499014    3.77462991678413
N         3.03398327893765    0.07416960160313    7.07530263779952
C         2.23905466568653   -1.30962639277907    1.59230833014566
C         2.99095976029513   -0.72316852960464    4.90067124289759
C         2.44153336219090    0.14344321924421    5.94712294890636
C         4.14194244318550   -1.62615138922653    5.18201781517651
C         1.27197905506645    1.00960365205627    5.61733062833032
C         2.76940315507702   -2.16833470920830    0.50921334788066
H         1.05423825714510   -0.00821606286337    2.36009388363262
H         3.12473712960879    0.67981280298941    8.84645848341409
H         4.93691664260218   -1.43675998637208    4.46160566220438
H         3.82549277468023   -2.66089755522333    5.05198687629512
H         4.50442717515165   -1.47495428589727    6.19191113689924
H         1.52814789754182    1.68185719938661    4.80143215260037
H         0.43654120063776    0.39454979054602    5.29022520725167
H         0.98093689130553    1.58779595210025    6.49000886354228
H         3.06920666787780   -1.54458112823589   -0.33305760981193
H         3.61063555171306   -2.75071459698073    0.87255893132377
H         1.97717344441337   -2.82324039253693    0.14602082710235
Cl       -1.73175552337691   -0.22444333551613    1.60573397491553
Cl       -0.37799454778463   -2.24560605064678   -0.66416215337961
N        -1.25232020098847    0.50661499331109   -1.48228434234757
C        -2.23893707015097    1.30952037261357   -1.59226258702581
O        -2.90191927085015    1.44718986861009   -2.74447080056366
N        -2.40102922935611    0.62841307874371   -3.77462707019620
C        -2.99094353497678    0.72316169885792   -4.90065726126286
C        -2.44152135697101   -0.14343161133504   -5.94712408258826
N        -3.03397118010988   -0.07416304434256   -7.07530437431099
O        -2.55110616856517   -0.87256615071563   -8.09053935261437
H        -3.12471111782156   -0.67982017257439   -8.84646197395261
C        -1.27195746985167   -1.00957754268735   -5.61733283257714
H        -1.52812080306934   -1.68183124919618   -4.80143514438205
H        -0.43652715155284   -0.39451405758271   -5.29022922531568
H        -0.98090669016415   -1.58776667297802   -6.49000882377530
C        -4.14193395914671    1.62614164977332   -5.18199339379889
H        -4.93688496841344    1.43679574356733   -4.46154420913958
H        -3.82547329402058    2.66089213352893   -5.05203273137978
H        -4.50446253086687    1.47490615704375   -6.19186503950302
C        -2.76930647813673    2.16818157806717   -0.50913028165418
H        -3.06905498871052    1.54438108252329    0.33313712345350
H        -3.61055607355863    2.75055420312350   -0.87245936872496
H        -1.97709646335532    2.82311937307144   -0.14594696914852
H        -1.05408978703816    0.00814696020616   -2.36005316896467

