53
CSD_code = KEQSII | q = 0 | S = 0 | Stoichiometry = C16H22Cl4N6O4Pt | MND = 6
Pt        6.72111282730872    3.91579829170909   -0.69928183192686
Cl        7.65467962145987    2.31071189183919   -2.10694439860604
Cl        6.48569507999451    2.31115379096240    1.06927849073245
Cl        6.96347066019430    5.52920242757013   -2.45922352987236
Cl        4.68301139982121    3.19244084832305   -1.56621734151102
O         4.73502578596242    7.15404016313283    0.93223622063709
O        10.39722588107407    4.25214122607960    1.15968177122818
O         9.15327278461351    9.22023779661122    1.90408223722106
O         8.17761016848808    6.87533045308340    4.78926279974714
N         8.48635894897258    4.17549217763989   -0.06482408013363
N         5.71161589554258    7.19376591749732    1.93060504438571
N        10.05761621380252    5.56706901336881    1.48767705112257
N         7.32492641023048    7.25796126884717    4.01264737853547
N         9.67127034524324    8.12413065217297    1.98289773114979
N         5.70394217330409    5.23315286056067    0.20498760280000
C        10.43563929446428    7.47109194859081    2.74648764412439
C         4.83196591875036    6.11651557129195    0.07666827285121
C         5.76768167072132    8.28580101133065    2.58883324987239
C         9.50999590693741    3.61132321655744    0.37208122480907
C        11.86970667210687    5.39059407817254    3.14110359843116
C        10.75653914543506    6.08958160893132    2.41916103605795
C         3.76069149457578    6.19890035906130   -0.97164017749625
C         5.47063898856269   10.78410269830624    2.84743537460870
C         5.97281987036729   10.62479172574029    4.27538803055551
C         9.95694358475463    2.20132429980556    0.11650708586596
C         4.87776960357250    9.46949731427888    2.35232956556818
C        10.97378323434290    8.09862740300815    4.01893704090178
C         6.75855460124792    8.32792357242209    3.65438683921292
C        12.31937954534551    7.50021829164254    4.39794197508573
C         7.14215104150808    9.65264480482113    4.28719466898111
C        12.17910315345471    5.98873658537223    4.50901650941928
H        11.61453067334146    4.33229165660099    3.23182253942370
H        12.75583481294504    5.45210977005781    2.49944718543805
H        11.37032514099085    5.75185395310324    5.20269647193413
H        13.09800445348567    5.54606823842912    4.89559334022357
H        13.07135842496615    7.75369141658018    3.64757126388262
H        12.63776796822180    7.92467646636789    5.35167977300613
H        11.03703797654642    9.18006617083192    3.87959342216966
H        10.24558440806259    7.89300182715169    4.81126281830337
H         7.96650124991840   10.06450959004297    3.69464357598122
H         7.50372610623122    9.46769444289399    5.30110452941390
H         6.30897050921650   11.58500908526938    4.67054481900876
H         5.16913485921941   10.25802717222252    4.91751889904871
H         4.71039677802771   11.56443555386506    2.79357417248334
H         6.30218764873897   11.07524671332792    2.20306455531596
H         4.65038605623738    9.52654628004662    1.28546106082616
H         3.93355956491465    9.26922887172016    2.87102774501554
H        10.88509499288889    2.02153732396942    0.65129566643677
H         9.18086812856857    1.51811751711338    0.45671399168240
H        10.09811554705339    2.04646615848692   -0.95028441402802
H         3.17948386315610    7.10279044432608   -0.81364800280831
H         4.22850724194477    6.21150339861523   -1.95435443926185
H         3.12022567322428    5.32222467972201   -0.91442605724306

