95
CSD_code = KEQSAA | q = 1 | S = 0 | Stoichiometry = C48H40N3OOsP2(1+) | MND = 6
Os        3.37726428420319    0.77346662526300    3.71614597742139
P         5.76961995117411    0.71376406230813    3.76068144509574
P         0.98902952400859    0.61417794861963    3.71505544536992
O         3.24918923842805    3.20301266372589    5.51916540378969
N         3.40576271054867   -0.87112340897420    2.44088616839183
N         3.46784059829361    0.85964392164908    0.89849473157518
N         3.44468347306421    1.62477250087013    1.94285477554779
C         6.64126572005487    2.11085297292345    2.96989467901729
C         7.73250366074278    1.96822155720282    2.12011188961956
H         8.10253532087148    0.98773142987165    1.85692414334329
C         8.35843920376762    3.09287739913685    1.61027383779530
H         9.20241387133163    2.97612313786365    0.94711928986766
C         7.91442203708724    4.35903234132930    1.95189147246678
H         8.40729117742988    5.23032591563717    1.54904600573144
C         6.84659987947805    4.50558423273989    2.82270705338621
H         6.50710630604334    5.48950759849607    3.10765214274585
C         6.21398607927673    3.38714494729681    3.32938035712770
H         5.38553208862747    3.49447364506739    4.01643333911659
C         6.37652238843554   -0.78010754397648    2.92137162412598
C         6.66438955809748   -1.92080435569197    3.66584673881235
H         6.62009199049033   -1.87742013832374    4.74533939016064
C         7.00916426839814   -3.09688839798274    3.02445180840323
H         7.24278933727853   -3.97579541489737    3.60583751012028
C         7.05191495496927   -3.14884521635666    1.64055388329918
H         7.32280897381959   -4.06678233320771    1.14206519931551
C         6.74327471968088   -2.02271180058446    0.89412702365986
H         6.76880021627617   -2.06321778779823   -0.18466520913689
C         6.39930705667393   -0.84347604760187    1.52854724065496
H         6.14854980037579    0.03124077071489    0.94168414609595
C         6.64251287381569    0.69925782850590    5.35689252315894
C         8.02893824943968    0.55402768850408    5.35512303010457
H         8.55571612999390    0.41818151673192    4.42033474817772
C         8.72420580122744    0.57974158687161    6.54828440288119
H         9.79717660536912    0.46203527816318    6.54680905548858
C         8.04582113550667    0.76016729637785    7.74458715466517
H         8.59299450993817    0.78176996080071    8.67448955098139
C         6.66973283577253    0.91371529550619    7.74665644650567
H         6.14264558350627    1.05640266226029    8.67763160731640
C         5.96531487853984    0.88493502550268    6.55492294263498
H         4.88884111222039    0.99460428034498    6.54532274956440
C         0.33774533053078   -0.98459133776003    3.12702403150428
C        -0.43355881117040   -1.17163281558679    1.98732502331892
H        -0.72291401010608   -0.33245205703972    1.37216738518367
C        -0.85991890536743   -2.44578425991033    1.64962556538073
H        -1.46216329113827   -2.58686494232206    0.76478220554684
C        -0.52748304325695   -3.53071001588132    2.44229267568907
H        -0.86450058053572   -4.51946213112209    2.17149807819879
C         0.22427133779382   -3.34398838637112    3.59238738377097
H         0.46811299844462   -4.18538261564711    4.22324419358294
C         0.65665414175483   -2.07764189250807    3.93292219628207
H         1.23368199659942   -1.91231774902165    4.83431089624378
C         0.21596333807911    1.90055724010060    2.67985951800178
C         0.40163956160108    1.88812181197132    1.29723346307749
H         0.94029890159568    1.07760226994515    0.82394742155649
C        -0.09136645683018    2.91861493697874    0.51898908649547
H         0.05297414902050    2.89679954189542   -0.55067728347624
C        -0.76073279578430    3.97778836866427    1.11024638864715
H        -1.14291312076868    4.78174762678229    0.50051313714402
C        -0.93128417808520    4.00628684396009    2.48440885458023
H        -1.44421446712284    4.83430294119137    2.94952901908108
C        -0.44038110912086    2.97838273056485    3.26954688054765
H        -0.56326368223017    3.01256356734287    4.34287672243844
C         0.07731392151679    0.73848847147415    5.28443374099250
C        -1.30687063385632    0.56863894012521    5.25428731435090
H        -1.80441278002179    0.38070620150192    4.31193752711723
C        -2.03521721151215    0.64593030586293    6.42509052447671
H        -3.10650777220229    0.51649665372654    6.40035293813598
C        -1.39089758697640    0.88813814986296    7.62957173500440
H        -1.96324837821282    0.94828471562254    8.54243864263345
C        -0.01601884194605    1.04811519240423    7.66233280891323
H         0.48533567168286    1.23191288735383    8.60025906895107
C         0.72124993876477    0.97151078258927    6.49238678753683
H         1.79747882532640    1.08059397999250    6.51013191234137
C         3.38687280727183   -0.46586430799039    1.14832046232852
C         3.31107448565073   -1.37108614970379    0.08077972464164
H         3.28104641635745   -0.98019399063711   -0.92276450632977
C         3.28300993503972   -2.71700609800778    0.35742387672452
H         3.22148163981542   -3.44138423739401   -0.43933405879892
C         3.34886789131044   -3.12970828883766    1.68652025026282
H         3.35200163917121   -4.17564369197982    1.94350163682823
C         3.40784774912797   -2.17972377156757    2.68546577814607
H         3.46885449163351   -2.47368617973316    3.72341404266897
C         3.61617626013250    2.97265224663972    1.60713660745188
C         4.45645891653475    3.32049568100859    0.54552523094394
H         4.96245970351620    2.53714573866805    0.00165146625684
C         4.65613680908130    4.64677928256040    0.22484211143562
H         5.32247553711865    4.90574561294876   -0.58340507136472
C         4.00308209903756    5.64134381074960    0.93585581338445
H         4.15741728623557    6.67834620641651    0.68126145162601
C         3.14405468532490    5.30081811231796    1.96951942587376
H         2.61713976107264    6.07021862207519    2.51237647485451
C         2.95285564456004    3.97755213490458    2.31181703590184
H         2.25851208453985    3.71632428320374    3.09686054457269
C         3.30972206358753    2.30638979606525    4.79830390774537
H         3.39180153328581   -0.16479041331174    5.00082022721268

