67
CSD_code = KEQVEH | q = 0 | S = 0 | Stoichiometry = C24H37NiO2P3 | MND = 5
Ni      -14.12689454226745   -1.45070410404559   -1.39289500702152
P       -13.32763926705067   -1.80653986991167    0.74927856151283
P       -15.84910930509675   -0.01544447719164   -1.07983342631909
P       -12.22453245041861   -0.87808399413282   -2.50147605984124
O       -15.05192340160400   -0.72986447841911   -3.84161244603943
O       -14.37702432575424   -3.57182408992880   -1.26417194017965
C       -14.83285422238820   -1.70042980046869   -3.15362265811632
C       -14.98085155479291   -3.07260450017882   -3.43963772393988
C       -14.74758421331875   -3.98170566119030   -2.39498293359297
C       -15.30009774896349   -3.45411295292391   -4.82403917354364
C       -14.58990227253303   -4.48183662524379   -5.44605873449746
H       -13.80358580325091   -4.98916400999322   -4.90514420189976
C       -14.88208381729654   -4.85413106126038   -6.74361000320131
H       -14.32648711837968   -5.65684982493625   -7.20792276570162
C       -15.87455582571413   -4.19751255033147   -7.45274841377442
H       -16.10050727065037   -4.48868484777528   -8.46839227110191
C       -16.56908308795323   -3.16061943936441   -6.85318430312905
H       -17.34067993197914   -2.63929426730391   -7.40228180650643
C       -16.28507836845797   -2.79107940012432   -5.55189501093417
H       -16.83112290562146   -1.98253729706277   -5.08981773678909
C       -14.97177585717930   -5.43965172134652   -2.57311147030290
C       -16.11232374023052   -5.92856773406508   -3.20284345239199
H       -16.85182966004221   -5.23873063746907   -3.58080665204175
C       -16.30142016116186   -7.29148528874272   -3.33420175669700
H       -17.18922784413721   -7.66472424855414   -3.82388700419379
C       -15.35815970286637   -8.17887648839250   -2.84138398423826
H       -15.50603251731084   -9.24332129551551   -2.95326849423770
C       -14.22922203356439   -7.69908177950710   -2.19919304403943
H       -13.49544494073317   -8.38859178175991   -1.80642587238159
C       -14.04192023513569   -6.33659630122637   -2.05760205568401
H       -13.16606079135594   -5.95225594479249   -1.55468095857647
C       -14.60985599953820   -2.54770931040332    1.83456779498706
H       -15.11716867239169   -3.32427432081540    1.26660888316093
H       -15.33479540508534   -1.79139111004666    2.12557647835808
H       -14.15523128399454   -2.97825641746122    2.72626298808252
C       -12.55951512414437   -0.62416744594881    1.94204955607313
H       -11.63052254808800   -0.23810927665586    1.52863852561381
H       -12.35371142492770   -1.11488377319665    2.89168155007379
H       -13.23144832440022    0.21429028094283    2.11220586387154
C       -12.09279438767209   -3.16515265166080    0.83340550592973
H       -11.18045786380022   -2.88758707198168    0.30981634184214
H       -12.52830012784117   -4.03079218298466    0.34117242808186
H       -11.85844597940518   -3.40576445562978    1.86988296564710
C       -16.39880572081068    0.50215941294083    0.59970804082485
H       -17.09079145968391    1.34057391929102    0.53177049272896
H       -15.53583915650679    0.79478351584178    1.19399688149788
H       -16.89579902462638   -0.33285982880262    1.08873107955991
C       -17.49183746147678   -0.34060436263592   -1.83117102584278
H       -17.37917759859133   -0.41416778163108   -2.90969407842221
H       -18.18514100297824    0.46428796687383   -1.58923019211345
H       -17.88031582882737   -1.28508904052485   -1.45367793185044
C       -15.48584408525305    1.62986042669116   -1.80506600114095
H       -15.23886322651102    1.49211196286662   -2.85482080587823
H       -14.62967178263343    2.06428422736173   -1.29213859657356
H       -16.34809095249362    2.28804866183273   -1.70789935373630
C       -10.74978934853725   -0.31104418059913   -1.55399442290388
H       -10.45838759009143   -1.06924450589850   -0.83163797018335
H       -11.00330868638725    0.60091613276641   -1.01671274452374
H        -9.91660163106207   -0.11402829425045   -2.22716123370624
C       -12.23143937476283    0.42106331413492   -3.79683162142531
H       -12.41566578864794    1.38664230486549   -3.32989335393580
H       -13.03098195930653    0.22033562920602   -4.50543750949887
H       -11.27326029861656    0.44103735608941   -4.31399460153239
C       -11.48573196310159   -2.26867932321105   -3.44653256716215
H       -11.35743957260166   -3.12238060946489   -2.78314848568664
H       -10.52401720329194   -1.98310472364939   -3.87154653252233
H       -12.17133722470811   -2.55279797110264   -4.24333354829308

