36
CSD_code = KERDUI | q = 0 | S = 0 | Stoichiometry = C16H13N2O4V | MND = 5
V         5.35023363370591    6.45132282285300    3.75858978264120
O         6.82142900567043    6.18177960524906    3.42833459112370
O         4.44097136901376    6.01444185466522    2.60637219591914
O         4.76042658221741    7.30524945438287    5.28044551783229
O         4.30617643369282    9.19805124081221    6.36638055545980
N         5.42892045807581    8.42617139525566    3.15839728524564
N         5.12414638788463    4.70930876393159    4.80136517710552
C         5.06699440840631    9.26286370757240    4.09809306805564
C         5.05317752986301   10.65837392334628    3.93741630269981
H         4.73886157551664   11.26932060965514    4.76934902216587
C         5.44158676850707   11.17320766416014    2.73140996447263
H         5.45115830274318   12.23934509814443    2.55419348145036
C         5.83829604951226   10.29702632050511    1.69863108365456
C         6.25324279774207   10.75265774656839    0.42999733602507
H         6.26764144467458   11.81637667543894    0.24230516449007
C         6.62854643374804    9.86261076671702   -0.53732216862142
H         6.94581570134222   10.21791892060510   -1.50634789876370
C         6.60546052799956    8.48066479673885   -0.28234595199827
H         6.90555927116353    7.79753679869196   -1.06230141223125
C         6.20970451362906    7.99647811210895    0.93529374977294
H         6.18184710153023    6.93633201920563    1.16232175465120
C         5.81863270919839    8.89261094527213    1.95227955948241
C         4.66327883943445    8.56578185864124    5.39254598717236
C         4.75694787951818    4.60274354268375    6.07089864111483
H         4.52984149372644    5.52700704962805    6.58997816092481
C         4.65964289104557    3.38573192008653    6.72631116971975
H         4.35627678573015    3.35827491843908    7.76200039969848
C         4.95589938776661    2.21233200136456    6.04377127177731
C         5.33812511755400    2.34171194579765    4.70896168555790
H         5.58015675510774    1.46601345309068    4.12614298908913
C         5.40962126985651    3.59448683752859    4.12921482596846
H         5.70476597248749    3.72942962463333    3.09380032295535
C         4.86565034621043    0.87218925434859    6.69350968074803
H         4.67033766053944    0.96389896677755    7.75827332622342
H         5.79118008072083    0.31848213618297    6.54774119574587
H         4.06134651446599    0.29426724891728    6.23979218267060

