96
CSD_code = KERGOE | q = 1 | S = 0 | Stoichiometry = C50H31N8O6Zn(1+) | MND = 5
C        12.36409774706331    1.87041444957351    0.24402273565653
H        11.91975119155362    0.97136491532074    0.64793306683955
C        12.65325138056344    1.98381052947492   -1.11834182489252
H        12.43563567394439    1.16238336652524   -1.78182213361359
C        13.20569950530619    3.15100549664440   -1.58831364626035
H        13.43570490913485    3.26876140085879   -2.63682764851229
C        13.46798301386759    4.19569993921700   -0.68655500306350
C        13.13396687958298    3.99135005108589    0.67850152209097
C        13.35725264509595    5.02021854144256    1.66267097241015
C        13.94148799152690    6.25549068976436    1.30093864993664
C        14.13849335411400    7.21976844114472    2.29736907286659
H        14.57993365582463    8.16544769163805    2.02486265706076
C        13.75792810905514    6.92457499275333    3.58542387052345
H        13.89149168475623    7.63581609671038    4.38461772980905
C        13.17984202304909    5.68177663627729    3.85109844006045
H        12.86570179995624    5.42316171706269    4.85236439830130
C        14.28285597701897    6.44534230585088   -0.06625485988368
C        14.03993685161675    5.44496874087698   -1.01877969953381
C        14.95149489616012    7.22867223450616   -1.93715547913005
C        15.50416780965658    8.11672602006029   -2.93058995422710
C        15.95232128452746    9.37714021017999   -2.52451587281981
H        15.86699971722402    9.63924849986448   -1.48259019834017
C        16.48803103841442   10.26051918967232   -3.43409907014462
H        16.83095304156031   11.23309316409808   -3.10887054935791
C        16.59074883756397    9.90647062195402   -4.77912031250357
C        16.14511795555676    8.64946800066032   -5.19196813596198
H        16.23122665525538    8.39141731184960   -6.23504947329240
C        15.60975472698841    7.76847484950257   -4.28077342350725
H        15.27421033049420    6.80429892670776   -4.63316915816476
C        13.69064395470682    0.77328463942807    3.55587746525629
H        14.14516705955596    1.04360622612591    2.61387843357630
C        14.07120866376837   -0.39346879406858    4.22127202374853
H        14.82456668814428   -1.03532623583901    3.79380702453363
C        13.46622048778820   -0.70776451542742    5.41445815551714
H        13.73225989355669   -1.60843082129187    5.94732421670499
C        12.49270102771776    0.15991508402105    5.93442513803984
C        12.17938265062675    1.32851482906217    5.18978477174878
C        11.19045693606111    2.26281358421896    5.66545347512928
C        10.04696986881229    4.22030472936335    5.29867431066918
H         9.89675622964781    5.06821314257630    4.64452578410618
C         9.30144553819755    4.07134794696042    6.47053116002120
H         8.56471198137627    4.81334422526540    6.73390725572340
C         9.52407785766395    2.97259626162612    7.26732056672620
H         8.98016435279902    2.80121498018620    8.18297161299447
C        10.48983800657993    2.03773839892518    6.87188940047980
C        10.81068311535871    0.86303609367512    7.60646507302377
C        11.78364286671664   -0.03385030808865    7.14168237958934
C        10.65558942868297   -1.51281138542312   10.21920191708390
C        11.35013758826144   -2.69713577663026   10.48511913805795
H        12.11646639994538   -3.05434891061007    9.81311581387912
C        11.07356029671620   -3.43396707703115   11.61354969585242
H        11.60344457516281   -4.34785144292845   11.82817585674795
C        10.09219456112280   -3.00776180723853   12.51041661880741
C         9.39588831805245   -1.82741200129554   12.25173711497281
H         8.63455340946111   -1.49283936611007   12.94287831405447
C         9.67511438421500   -1.09166331435192   11.12223986896632
H         9.14319091970684   -0.17835911654205   10.91121802985540
C        10.91095735125054   -0.70795075137232    9.04954612259993
C         9.55927175510086    2.94079462404163    2.14640812512598
C         8.13878023961712    2.85501552544852    1.68115721817696
C         7.12304060397907    2.96261137931455    2.59570836178489
H         7.34852739373967    3.10366727671188    3.64284272006980
C         5.79248290129582    2.89319476673946    2.17596904534558
H         5.00345206606579    2.98996531598544    2.90501183284107
C         5.46788788935070    2.71400237741674    0.84825021471208
C         4.03182261545459    2.68268242991643    0.47720978220141
C         6.50093151781753    2.58692330287910   -0.12567503223392
C         6.25535027612497    2.36764794196604   -1.49780088204135
H         5.23646716863053    2.30497138238961   -1.84144820584086
C         7.28662724665757    2.24921495733984   -2.38871366238175
H         7.07737845944374    2.08208887037754   -3.43458433206777
C         8.61789606211637    2.34635818075628   -1.95972386735649
H         9.41946086907185    2.25620430032053   -2.67873881085948
C         8.89333852762567    2.54879544815973   -0.63749783423589
H         9.91322644171394    2.62314877296912   -0.28808909763222
C         7.85386538750923    2.66479796652231    0.30902953428136
N        12.59858378306066    2.83919455701948    1.10465278979778
N        12.98581979842307    4.76397999629948    2.92753480385174
N        14.47469749605848    5.96935781152303   -2.20107928683038
H        14.44393290294824    5.52423874241809   -3.10259124995376
N        14.84298885342323    7.52408762018269   -0.65774606110078
N        12.77911730272648    1.59974315078424    4.02266247885129
N        10.95870880184784    3.35103472141582    4.91420672063967
N        10.29496096595028    0.42454734158464    8.77650405624898
N        11.82790069024405   -1.02412439375714    8.07930472829210
H        12.41339175660163   -1.84180950652105    8.06345207155647
O        10.14776577965720    1.90269447846678    2.52351567869299
O        10.13020412158305    4.05385435502775    2.17567573056196
O         3.56791520250306    2.88512715451068   -0.61736301559107
O         3.23940336471665    2.41287420333164    1.52800387350761
H         2.31162639886526    2.41919517829494    1.24328044973625
O         9.85939156568974   -3.76490858707601   13.59907011694557
H         9.16387960613405   -3.37851474046647   14.14667772716528
O        17.10685668087948   10.73136642792659   -5.70966214326671
H        17.37940798296594   11.56982149645773   -5.31515481045729
Zn       11.74560442625474    3.10168162476369    3.00178682065603

