39
CSD_code = KERNUT | q = 0 | S = 0 | Stoichiometry = C16H17N3NiOS | MND = 4
Ni        6.27128115043165    7.07225239308524   10.25510757546851
O         6.41804244667139    5.90635322895735    8.86987467424054
S        10.58563227901173    5.93143172982199   10.14820681829963
N         4.44304623849425    7.25251083055452   10.00043049563038
N         6.06998536419849    8.41374753510612   11.75662914337908
H         5.94460363268654    7.77440373215148   12.54979275521145
N         8.05026239313891    6.88983795774914   10.62910731401701
C         4.15390826090479    5.81925033251473    8.07912932131422
C         5.53520544578832    5.47564158569486    8.04992524033742
C         5.99432530831303    4.57342985403320    7.03524046801438
H         7.04702920976598    4.33701808116799    7.04218428604169
C         5.14410080924792    4.04900197810687    6.12531900071449
H         5.50753663290560    3.36739766828973    5.36916861278873
C         3.75870149239521    4.36859669062719    6.12827480884178
C         2.89931781876182    3.80460504076291    5.17252487098588
H         3.31533561722575    3.12614391183981    4.44150437380616
C         1.56155229590958    4.10299990409223    5.16172972672573
H         0.90463969410996    3.66529721795258    4.42533253570106
C         1.05260226038131    4.98373708691080    6.11595460309378
H        -0.00058248101024    5.22489899451841    6.11233375279289
C         1.87532905021852    5.54763601184173    7.06014320175616
H         1.43209974191219    6.22402699423291    7.77483186486941
C         3.25078362657536    5.26131145561898    7.10429589168449
C         3.70332831157183    6.69829039624966    9.08608391492861
H         2.64007701221302    6.93189816101975    9.11003837437695
C         3.78582786996705    8.07962268655909   11.00154936657953
H         2.90347746563143    8.58389658777825   10.58676422620654
H         3.45240180877650    7.43895249431268   11.83061029465245
C         4.79379725390103    9.10274258332351   11.51887174187660
H         4.40903527231987    9.58676070078323   12.42497849252990
H         4.96544858365306    9.86795288002546   10.75580234121663
C         7.15876965030501    9.33321673408579   12.12480217558718
H         7.23909697997604   10.09408468190342   11.34517529510243
H         8.08725053862422    8.75800102593910   12.13172369966863
C         6.95855797610117    9.98751138787551   13.48905556556425
H         6.10849744999074   10.66574659789775   13.49640904633757
H         7.84470306584923   10.56091702717227   13.74516209644609
H         6.81277206386034    9.23165938034324   14.25886534700506
C         9.10612040922240    6.43141645909900   10.34386668620199

