97
CSD_code = KERWUA | q = 0 | S = 0 | Stoichiometry = C44H45CuIN3P2S | MND = 4
I         1.12980402660282    6.67877548583900   14.00091263804213
Cu        3.29385869085691    7.71151876127989   13.27443054192650
S         5.20965211861689    6.64171764295063   14.90691404762421
P         4.29000038645107    6.79644933664013   11.47024122988118
P         3.96379804207681    9.84376393553470   13.44531313527945
N         3.83753372021200    3.01851323139721   14.95587987586510
N         3.89302364473889    4.37351564361389   14.87848077832896
H         3.05502758215204    4.94741394374760   14.75997588004850
N         6.15497469940515    4.18000224255091   15.12006143846291
H         5.93837940684661    3.19080495336019   15.14555017068561
C         2.70486927561606    0.90031612116620   15.02730233633275
H         2.85173098209679    0.59642711818606   16.06711517762145
H         3.49706729969056    0.44914628167859   14.43194907814129
C         1.29540525746661    0.53712836195824   14.56153935848447
H         1.26198790613226    0.50228005907486   13.47118528992893
H         0.96355529335578   -0.42632498764540   14.94491739919242
C         0.44506784263799    1.70039927635976   15.07282958061801
H         0.24574316385951    1.56941478136218   16.13747505113452
H        -0.50805714429956    1.78343940707146   14.55493713674770
C         1.33026980729935    2.92922731636792   14.85698499589812
H         1.16425328341673    3.36098833980170   13.86722539184558
H         1.13530479307429    3.72000055583634   15.58199541076206
C         2.73065892081648    2.39923376399481   14.94957276588209
C         5.09457669766230    4.98117835193951   14.96525530948889
C         7.51041348834163    4.61245911685866   15.33113198122043
H         7.82997319307601    4.32334661107885   16.34003572455954
H         7.51575201934379    5.70357562172984   15.26744621408474
C         8.45782052834084    4.01265099410926   14.29959576206104
H         8.43241309507231    2.92602749892676   14.34633958805927
H         9.47378042851353    4.34526770033510   14.49418460055771
H         8.17324754249149    4.32493709155813   13.29884294993750
C         5.88379050418010    7.45741588028986   10.89406872582917
C         6.07396750340102    8.05635838209582    9.65320014807902
H         5.26862407555191    8.08208586408826    8.93108742997363
C         7.29847332756892    8.61936949069552    9.34069753984589
H         7.44106254739068    9.08349335299079    8.37516902214118
C         8.33762253169920    8.58933152729630   10.25532765659219
H         9.29275223793028    9.02544036529778   10.00225443056282
C         8.14705329810448    8.01198718865222   11.50045643645197
H         8.95023652389423    8.00005304844496   12.22255320579271
C         6.92160270233375    7.46602507268790   11.82617496704348
H         6.75072686456196    7.05501752366276   12.81296114382258
C         3.22437989060128    6.85142746618544    9.99206242899901
C         3.53366520090354    6.13850976109084    8.83636531759231
H         4.43473161121849    5.54002863181580    8.80064288370793
C         2.68831800850937    6.19850484436414    7.74540981416721
H         2.93085049777373    5.64868486041650    6.84726588726064
C         1.52918426647016    6.95849974803121    7.80182996404363
H         0.87146814464291    6.99944774400609    6.94596516865689
C         1.20979444652669    7.65513677356319    8.95451626759862
H         0.30205367851989    8.23760851231276    9.00664358705439
C         2.05472502756622    7.59965569198660   10.04859969564847
H         1.80515918235985    8.13484265776186   10.95586925757183
C         4.57005969396713    4.99849300398278   11.54734284366745
C         3.42141372464639    4.21805316499544   11.68217272001725
H         2.45114760060630    4.69878977750498   11.68311201867302
C         3.52191560933598    2.84721006324544   11.80575048347174
H         2.62869764717754    2.24708401527802   11.89508478716994
C         4.76928432339577    2.24327791046239   11.81724263152479
H         4.85043440716278    1.17121189830733   11.91958722554837
C         5.91150115502623    3.01483498498547   11.69328266574426
H         6.88416700058404    2.54331724130781   11.69515162952131
C         5.81755865711622    4.38894748124730   11.55718092917258
H         6.71196773188443    4.98621119126624   11.44395105064608
C         3.11993206563655   10.78591785151156   12.14088290821463
C         3.39314137146920   10.41738399441259   10.82370415520463
H         4.13573733689443    9.65041078604105   10.63256258457567
C         2.72384250219988   11.01683077318470    9.77547062566487
H         2.94432913703656   10.72600572853659    8.75822271580598
C         1.75998608889455   11.97897057458287   10.03421376882784
H         1.23087280913025   12.44599351157638    9.21670271144794
C         1.46734789054486   12.33205308711658   11.34117266771327
H         0.70723087978540   13.07269025336385   11.54271969257120
C         2.13845481226181   11.73706699805093   12.39509096498745
H         1.89935542816820   12.00778013435819   13.41392089116538
C         5.71199553977471   10.32919391853932   13.26698215954100
C         6.56600760871322    9.84717858938296   14.25763403273246
H         6.15860896279919    9.24195625493617   15.05713380396001
C         7.91513507404627   10.13522659798199   14.21323906171115
H         8.57077335520759    9.76308063936762   14.98726050576363
C         8.42626080163534   10.89679308161729   13.17376542227216
H         9.48238348130429   11.12132395671684   13.13522798296583
C         7.58245569380947   11.36853302105206   12.18319034164163
H         7.97877519971092   11.96260140833948   11.37204979241754
C         6.22795634041543   11.08882288061374   12.22465305386581
H         5.57762817489276   11.47245910630022   11.45106873466065
C         3.51653765637439   10.74936941273694   14.95986516916724
C         2.58780505098578   10.16768699185591   15.81573123059177
H         2.17100240369003    9.20011313010468   15.57337934070790
C         2.20310350051731   10.82356912183837   16.97150057065688
H         1.47912809126987   10.36940406625113   17.63154618114522
C         2.74899812685492   12.05856021660301   17.27765156357827
H         2.45215701517579   12.57184193999764   18.18063950950793
C         3.68041137627528   12.63847208424453   16.42915794919411
H         4.10636075600468   13.60164231614356   16.67175900641493
C         4.06690591239764   11.98984217332424   15.27210416429656
H         4.79210394145238   12.44017572043995   14.60739593468850

