36
CSD_code = KERZEN | q = 0 | S = 0 | Stoichiometry = C12H17Br3N2OZn | MND = 4
Zn        1.78983907162204   12.11465898982381    9.33957307581547
Br        6.28938949382501   13.86764243500717   14.65919800112039
Br        0.44745447608417   10.88773415007557    7.84585744485193
Br        2.28671604555002   14.35132176194515    8.50793152202908
O         1.70484334825781   12.18196628020475   11.18142660103213
N         3.74480105596574   11.29560492457908    9.28049690657564
N         3.66021850730692   12.79620760231720    5.24843756900032
C         4.07756677258825   12.29998341515160   11.48026510531353
C         2.72177017186202   12.52786680061285   11.87648422284430
C         2.50489820919473   13.15427896677583   13.13430907578404
H         1.47899350577293   13.32082807531820   13.42636335768868
C         3.53320887145662   13.55114681354275   13.93912204038670
H         3.33952502756250   14.03785834694864   14.88327945805664
C         4.85020367494143   13.32063981643624   13.53033789237312
C         5.11761623582333   12.70237889646040   12.34168362541802
H         6.14098263845719   12.52534389993620   12.04164045101513
C         4.47252882985653   11.63049025351592   10.28811185639836
H         5.53742235893768   11.36366363512625   10.25737045154668
C         4.37539534444970   10.48725209718439    8.25859007130246
H         5.47071029050250   10.56357444602591    8.33444836084647
H         4.09569635337577    9.44366504668605    8.44434304253557
C         3.92006275639640   10.83752304788069    6.83765670579057
H         2.84437575467578   10.68504882673684    6.79239174263846
H         4.39611160918958   10.13874847667934    6.14634743165547
C         4.28441150730558   12.27607064253323    6.49595260807254
H         5.36803316099954   12.36682800041888    6.38696441170810
H         3.96389150085344   12.93693536639671    7.30359181899966
C         4.10175420612249   14.18537868700827    5.03743590231895
H         3.69611351280704   14.57325357288737    4.10616484833194
H         5.18741768607288   14.24451475302371    5.00580481576502
H         3.73280046989841   14.79132597486256    5.86677075864710
C         2.18502442775152   12.76116973477060    5.25077566852339
H         1.81848450750872   13.37450116486524    6.07252345693356
H         1.79935995947596   11.75272939038003    5.37108041169288
H         1.81172595796194   13.16916441751582    4.31512440959686
H         3.98355269966701   12.21180129039768    4.47034487742745

