52
CSD_code = KESGEW | q = 0 | S = 0 | Stoichiometry = C22H19N3O6SZn | MND = 6
Zn        7.38560379524641    0.97510065819033    3.81519780420808
S        10.19439756583488    1.19389043338022    2.81787571572940
O         5.60371204407096    0.27983530208099    3.99241234809334
O         2.40643696440246   -5.11078826772476    4.94655469327860
O         9.17524223255562    1.73759068865754    3.74298637081888
O         9.74777504794869    1.27869732756024    1.42398203625745
O        11.49496929403477    1.75020797410992    3.06528458856097
O         7.32426870320000    0.57788916555115    1.68864544686734
H         8.24731462337339    0.88729845519452    1.43698008791168
H         7.22699955273378   -0.31767676824296    1.35558325697576
N         8.17086150266319   -0.84799656199259    4.32382951841202
N         6.75902203598408    2.91456928184847    3.41258127197317
N         7.33830447612766    1.78916540702705    5.79617388594390
C         5.19431078680536   -0.90190154939911    4.20516881884467
C         3.78865419870831   -1.16750114204961    4.19692063283394
H         3.14291709481635   -0.32630399917589    3.99570520595157
C         3.28133069188677   -2.40736236894446    4.42505579502510
H         2.21701197899793   -2.59230201094054    4.41365233457778
C         4.13549680356218   -3.50394854517979    4.68810749564002
C         5.49984541241088   -3.28506659136193    4.70747306313136
H         6.16325571439380   -4.11739532912491    4.90966454670381
C         6.05828414653512   -2.02299624061897    4.47270009419659
C         7.47531175554592   -1.90672082171645    4.53632608790164
H         8.00291898554967   -2.83207676482942    4.81007019721772
C         9.60318753733850   -0.93109739506999    4.47359650969552
H         9.89781756821477   -1.93361681349920    4.82503476029803
H         9.91333885325646   -0.18742813857444    5.21412290090785
C        10.31250357003111   -0.60253134342034    3.17538420668937
H         9.88469568936206   -1.13065077957742    2.32772704527088
H        11.37596205391061   -0.80670739751537    3.24399830172671
C         3.58144066867514   -4.82453864256116    4.93537611086941
H         4.35220655985929   -5.60165508184401    5.12583470934976
C         6.48669890112344    3.44383175544655    2.24380826043729
H         6.27369800294217    2.74708801520698    1.44714925173830
C         6.47095934382948    4.82530485199871    2.01907555711659
H         6.24733247222761    5.20542147365541    1.03479226469649
C         6.74950589061675    5.67391667962648    3.06149113193304
H         6.75387905697879    6.74636983581809    2.92858800238877
C         7.03702580658074    5.12998721458222    4.32490565601503
C         7.33517727830541    5.93370509630402    5.46337418397415
H         7.33498554043285    7.00716562558108    5.34331203594769
C         7.61648623673191    5.36950385182962    6.66182423690975
H         7.84528672170473    5.98031060206971    7.52279161241596
C         7.62602658067596    3.95354074383214    6.81998433415593
C         7.91957515943963    3.32416120806813    8.04092521064148
H         8.15177240828488    3.92432628047799    8.90909048835252
C         7.90553801603389    1.95230723073126    8.10601982556409
H         8.12240664329978    1.43429060526131    9.02703192322164
C         7.60902797797740    1.22480116161980    6.94864732339264
H         7.58569518431331    0.14365915413277    6.96885516629122
C         7.33648864666141    3.12508034469003    5.71223830201734
C         7.03243622380279    3.72304612883901    4.44438939092534

