82
CSD_code = KESKUR | q = 0 | S = 0 | Stoichiometry = C44H34ClCuP2 | MND = 3
Cu        6.89081985893850    1.56329867689266    5.36744740942456
Cl        6.58981210599079   -0.59838898325150    5.48391678787444
P         7.31289372730006    2.71967720235444    7.23539451960799
P         6.65175924699825    2.62103899546203    3.39907149141744
C         6.68939470266727    4.42795308232000    7.18255566896936
C         7.51325065437102    5.51920153098506    7.33575157429831
H         8.55547209401321    5.38018932384877    7.58617285876594
C         7.01865609704460    6.81833079319518    7.15914808940638
H         7.68683128155045    7.65706756139717    7.29152993741348
C         5.71097595264652    7.02262166261319    6.81580836374586
H         5.33055146526952    8.02327439034885    6.66884124033172
C         4.83076026647175    5.93211049634927    6.65165672507440
C         5.32058864069459    4.61303445489517    6.83947162250013
C         4.43273210930229    3.53121488018278    6.68343748523506
H         4.80377434646253    2.52174825023952    6.82080705923273
C         3.11969688010238    3.73982858942863    6.36747683893516
H         2.44914607989557    2.90150772188127    6.25561179560802
C         2.63642853615192    5.04275935354485    6.17934759307636
H         1.59710206722113    5.19001069758333    5.92643435421227
C         3.47405398082526    6.11377994564394    6.31225730628540
H         3.10902466771375    7.12055749585376    6.16676059144562
C         6.65476697373462    2.09469613631897    8.81239616949510
C         6.29669250902095    2.93026750442374    9.86609616579770
H         6.39476877245808    4.00288999628512    9.76313287734203
C         5.81392625333883    2.38027289660834   11.03918148522390
H         5.53689978301684    3.02611307700068   11.86013417228522
C         5.68375034141058    1.00561560371767   11.16352045248224
H         5.30507319950336    0.58359353596465   12.08298811669984
C         6.02900377767738    0.17423907101493   10.11034881745080
H         5.91688586460727   -0.89560158109010   10.20397521955050
C         6.51171741692396    0.71553499246334    8.93268186358231
H         6.76421620365181    0.07856922823233    8.09428888426353
C         9.08486192931389    2.94905116819152    7.58415955679507
C         9.63441858299961    2.96189881628543    8.86136468934061
H         8.99740245793851    2.84007288449305    9.72608519069693
C        10.99905060875280    3.12898559638108    9.01884590375153
H        11.42590484430382    3.13779653969498   10.01109698608919
C        11.81833322409635    3.28193098196579    7.91187261538291
H        12.88247501138155    3.41151185601049    8.04295696614136
C        11.27558743969060    3.25594117099880    6.63642112446389
H        11.91250975295826    3.36444645112339    5.77074801827863
C         9.91526800659694    3.07969508029523    6.47276412361620
H         9.47939491565041    3.04081278393360    5.48159513767846
C         5.14046850370224    3.61116660118411    3.16394790627000
C         5.15334703868478    4.94524941649831    2.83535181954261
H         6.08910414632624    5.46820628727528    2.70029889552124
C         3.95551233605710    5.64901315245586    2.65424867707213
H         3.99847815088261    6.69681625572195    2.39435987131098
C         2.75187430230678    5.01768701955187    2.79012188558314
H         1.82730335206824    5.55619088900848    2.63808993114312
C         2.69286299022169    3.65049385246918    3.13028245250495
C         3.90105555453193    2.93338255360799    3.33421889880254
C         3.82759748407757    1.57481102179932    3.69748446348184
H         4.74209054151221    1.02197846149215    3.87778438333924
C         2.62100455602362    0.94942906258300    3.84452506033427
H         2.58528469151075   -0.09041035362662    4.13178499334618
C         1.42735063266551    1.65354513749812    3.62621040265386
H         0.48121907610119    1.14448217257327    3.73978619239511
C         1.46364483090898    2.97521407199698    3.27974814676184
H         0.54853072421848    3.52709264515710    3.11617743178672
C         6.62076396711794    1.61172056933683    1.88180448399209
C         6.89451059309529    0.25227606173446    1.97752841453312
H         7.10042491278019   -0.18687788803688    2.94553942377144
C         6.88231953120099   -0.53271418892010    0.83752615378866
H         7.09326329052989   -1.58907058735985    0.91167550425448
C         6.59655648846546    0.03569966347745   -0.39225013852111
H         6.58626939817885   -0.57743095458794   -1.28164227522079
C         6.31740008368391    1.39106314331733   -0.48679885909896
H         6.09032362434133    1.83074525831479   -1.44740885251522
C         6.32664190880179    2.18186534611795    0.64602082849848
H         6.10843372663761    3.23962476707593    0.58056316847576
C         8.00941500413409    3.78875058962013    3.08175453596392
C         8.14445180261981    4.86646569983778    3.95764795405713
H         7.39105624783498    5.02405524179557    4.71786754559443
C         9.22686640050087    5.71801346013530    3.85954683412450
H         9.31718094664934    6.55170483114047    4.54061228658850
C        10.19877043262692    5.49160950753426    2.89705993075410
H        11.04890979973904    6.15325060303672    2.82099645076447
C        10.08338701715741    4.40961138293368    2.04007627594199
H        10.84588670862232    4.22647087289388    1.29704595331014
C         8.99872250088747    3.55466219888604    2.13234560948245
H         8.91958407194039    2.70520626238814    1.46871351040350

