82
CSD_code = KESLAY | q = 0 | S = 0 | Stoichiometry = C44H34BrCuP2 | MND = 3
Br       10.14675592352739   10.12324356508801   14.70143468229208
Cu        9.76750142036289    7.88597807496182   14.88229758006100
P         9.50852637532735    6.53943986355574   13.11645926005532
P         9.81497225369553    6.77001650555768   16.82691803572633
C        10.39535227391672    4.95935128244419   13.25979501617303
C         9.74576913176861    3.74875148781046   13.33218487232989
H         8.67181356883447    3.69719157738049   13.21158006732928
C        10.46183455480240    2.56401811521852   13.54614831927864
H         9.92373600670545    1.62850883074206   13.59753451238624
C        11.82198255672466    2.58994956816031   13.67700350663566
H        12.37784208595181    1.67599560553069   13.82925762006507
C        12.52822979500742    3.80912156545256   13.61268504478132
C        11.80779647109795    5.01747594420498   13.42791934066387
C        12.51998308270876    6.23176657077831   13.39788952479346
H        11.97520595003900    7.16183684063400   13.28184553210735
C        13.88187108741704    6.25267741268055   13.50462608860466
H        14.41295743377704    7.19163736006464   13.47356164242271
C        14.59581624430567    5.05580912575183   13.65800183274254
H        15.67256524530763    5.08755684999809   13.73175762193560
C        13.93276117871688    3.86274611664295   13.72186216264275
H        14.47451376612719    2.93669795858281   13.85195868488318
C        10.01091534091384    7.15583420114430   11.47459766682380
C         9.68890668651404    8.48023720880848   11.19212411930285
H         9.19357705671338    9.08360589710808   11.94177569013546
C        10.02019819684679    9.02633545781178    9.96658208596672
H         9.77471845339194   10.05572102454090    9.75391023841418
C        10.67613433023658    8.25393756822718    9.02197799704157
H        10.93911634185225    8.67931676999821    8.06472939593723
C        11.00426835981344    6.93771169096689    9.30496962865772
H        11.52156248549002    6.33867624855045    8.56924645706331
C        10.67615157794692    6.38381185753182   10.52878896722578
H        10.94326372030453    5.35916312486557   10.75074480520423
C         7.78658546087433    6.06585277278650   12.74709921145400
C         6.79688482376376    6.48513848439241   13.62916449423468
H         7.07252246595255    7.06211231154088   14.50435665791389
C         5.47180167501746    6.16793915798468   13.39134818763956
H         4.70830026077947    6.49142907413830   14.08319559106086
C         5.13065754895326    5.43916950650112   12.26471530076109
H         4.09695917105186    5.18976983077099   12.07592423625529
C         6.11210818711485    5.03682702772258   11.37094872680122
H         5.84090972664423    4.47813988634225   10.48692646046149
C         7.43722658790397    5.35101336707367   11.60482530437255
H         8.20458886746440    5.04641769952978   10.90611615562708
C        11.15287218465182    5.53654931856110   16.88230434670416
C        10.92765247006585    4.18552028077526   16.99350460310579
H         9.92055943091737    3.80216517821449   17.07525636438653
C        11.99811005788175    3.28269122995268   17.02230159520249
H        11.78865461752848    2.22666292907690   17.11217041417167
C        13.28671543672477    3.73177833807558   16.95604864302105
H        14.11465304687623    3.03872933087901   16.99814978745138
C        13.56242049864772    5.10905992228243   16.83267853759375
C        12.48371828321781    6.02871178182258   16.76913572280082
C        12.77344887895857    7.39683577676598   16.60624339545169
H        11.95840465175856    8.10681250578908   16.53279765928482
C        14.06295932897420    7.84313427307088   16.53406715048887
H        14.26283266196051    8.89592809364355   16.40472015565128
C        15.12875028509326    6.93651901349830   16.62710658582517
H        16.14359165901458    7.30331398928668   16.57990282006904
C        14.88268724296964    5.59961972338090   16.76661532011649
H        15.69757431552501    4.89229028554687   16.82891620645872
C        10.09311154368275    7.67043194657639   18.38816310372904
C        10.57890032939579    7.02973994492617   19.52442902837618
H        10.80289364705336    5.97178634209252   19.49194192596141
C        10.77032738559631    7.75152810385497   20.68692027831249
H        11.14685662859370    7.25547655836375   21.56991068418938
C        10.48276554022601    9.10778647803223   20.72172349668609
H        10.63767315380976    9.66606217668479   21.63326702584020
C        10.00361231202659    9.74735243585754   19.59106789121746
H         9.78668212369345   10.80455590448674   19.61324161091400
C         9.80906323513061    9.03143810153522   18.42324986013994
H         9.44968892837209    9.53202692530662   17.53401890141177
C         8.31280766014896    5.81040216110834   17.19257307577724
C         7.87531302946151    4.92595974334768   16.20728783942543
H         8.48008009271266    4.78982510832722   15.31887057175479
C         6.69078126630953    4.23384816011869   16.36010005207650
H         6.36289368195372    3.54900545834751   15.59121064705465
C         5.91930433657165    4.43251536475396   17.49456403575860
H         4.98926496195446    3.89723834673690   17.61569221141795
C         6.33711425068523    5.32568708633047   18.46729205498634
H         5.73121553720981    5.48764837134417   19.34680525353366
C         7.52549871017992    6.01944555640586   18.31960256806095
H         7.84090286289926    6.72138736528179   19.07846024937602

