85
CSD_code = KESLEC | q = 0 | S = 0 | Stoichiometry = C42H33BrN2O4P2Pd | MND = 4
Pd        2.72611398568033    8.81872457583342   15.35757003849941
Br        1.61646704915321    6.78442721100709   16.09118776589618
P         3.83286795002739    8.98149220582488   17.32145037819442
P         1.61020504277821    8.68471220578492   13.39796497168984
O         4.15045351587062   15.22606468457042   13.45878898087786
O         5.98862848015728   14.30453098043596   12.83043065451710
O         6.75670109539101    9.69621353657272   13.78447396246429
O         5.12750349450333    8.43153910309031   14.36985910136394
N         4.89181903887050   14.26949616285534   13.34894131580469
N         5.59994225762571    9.53583794705749   14.11647229266138
C         3.47774605728753   10.54614678876161   14.79744291271360
C         4.75158362929651   10.67933617783994   14.22338364088741
C         5.24021946488153   11.89416690370634   13.75796653056011
H         6.22180380474599   11.95822120457881   13.31146826275561
C         4.43454312221791   13.01135512406796   13.86341940047726
C         3.17020833418356   12.92763695183385   14.45637673360125
H         2.57338565950760   13.82406909095826   14.53335919947046
C         2.71149408471242   11.71605245674898   14.91487818933903
H         1.72669400074507   11.66869466159738   15.37164131901107
C         5.33993646786621   10.00016594353096   17.31276780948070
C         6.59748508846002    9.43081574123993   17.14179096676669
H         6.70417439676082    8.35480178667294   17.13403811044798
C         7.70676783097096   10.24054658895712   16.97104363853260
H         8.67824556080024    9.79244711517656   16.82920410820666
C         7.56932338000289   11.61828354455124   16.96519401521097
H         8.43399778044975   12.24706117107307   16.81826866813523
C         6.31912140001673   12.19121889268163   17.14265012630883
H         6.20930270189255   13.26570663371452   17.14061610611220
C         5.20805986092655   11.38802837250387   17.31008775323431
H         4.22780359921609   11.83141224589739   17.43576800889526
C         4.38140620961248    7.39683848911336   18.01211489526492
C         4.88902167537517    6.47235948008134   17.10039906775707
H         4.92652720496041    6.72752810151434   16.04454220612863
C         5.31966113802622    5.23639502204722   17.54108427961344
H         5.70871015698742    4.51734562607307   16.83589481822212
C         5.23477824778346    4.91535620890453   18.88695680325970
H         5.56116866379157    3.94515279716527   19.23094647462802
C         4.71764594323400    5.82864629930307   19.78985943943709
H         4.63956141502269    5.57083716351710   20.83585598030903
C         4.28734591858492    7.07139687327675   19.35831744747843
H         3.86584754291436    7.77489903422932   20.06202517894167
C         2.79315264267713    9.77666863734150   18.57357376820148
C         1.42954923252660    9.87397169671845   18.31449945029240
H         1.02902444207993    9.46222766230010   17.38685365921883
C         0.58949882936136   10.47202392455662   19.23612083631382
H        -0.46964764956668   10.54237917546257   19.03741494022023
C         1.11016416212250   10.97862279205008   20.41555166698777
H         0.45653402322301   11.44599272854889   21.13687430513979
C         2.47000347344706   10.89192236640701   20.67275851598875
H         2.87277661587919   11.29263230812864   21.59138545512248
C         3.31471528030400   10.29460258678334   19.75585336374078
H         4.37861067509736   10.23797093897752   19.94447408418299
C        -0.16532780338585    8.42474916636830   13.66258376481682
C        -0.95126125969617    7.54388149536051   12.93412387714946
H        -0.51621279842267    6.95480871572217   12.14011774974670
C        -2.29183648996525    7.40502684085267   13.25144192986803
H        -2.90328867813540    6.71335046669226   12.69123908425279
C        -2.84670591051228    8.13582706670220   14.28794553051267
H        -3.89130540479313    8.01587155374520   14.53297921050474
C        -2.06016292741418    9.00678851405282   15.02630317916974
H        -2.48981586145972    9.56317707696956   15.84628279813410
C        -0.72206014638403    9.14512425735582   14.71811079959531
H        -0.08141985500240    9.80468114587268   15.30449358228092
C         2.21251670923568    7.36804485051339   12.31317913583621
C         3.14559038788326    6.46566999262556   12.81246164913393
H         3.49254543169858    6.55623063026540   13.83855650293781
C         3.63707045615214    5.46278251619694   11.99569640219407
H         4.36278670107856    4.76301593511495   12.38141151530860
C         3.20111923618623    5.36116616161067   10.68537360550070
H         3.58379927824907    4.57762721797318   10.04824891588420
C         2.28208061760172    6.26987306449659   10.18167496969914
H         1.95340163530139    6.19474101238765    9.15535887483216
C         1.78950327604473    7.27762804999446   10.98849077916160
H         1.09077402532897    8.00480282272997   10.59507659304400
C         1.69543946499840   10.15144848317135   12.32067140530431
C         2.88683059210728   10.37549451423310   11.63262420800722
H         3.65980831519143    9.61633232597917   11.64874387421436
C         3.07798405736094   11.54989171953883   10.93177022927286
H         4.00537600357629   11.71770141172174   10.40423597647023
C         2.08281958544432   12.51518495867872   10.91437656030770
H         2.23646420471540   13.43880033938295   10.37721184497603
C         0.89301608873277   12.29374432558869   11.58687182904546
H         0.11489906365498   13.04238380059953   11.56754145999391
C         0.69835430400902   11.11937155831879   12.29308109556374
H        -0.23093627739491   10.95100208808084   12.82035946833869

