57
CSD_code = KESNUU | q = 0 | S = 0 | Stoichiometry = C26H12F12N4O2Pd | MND = 4
Pd        1.87122341890172   10.78188147912011   10.82241760750206
F         0.25536834634317    6.22298299003358   13.28449686228164
F        -0.54804678081959    7.81261123435219   14.49280778146458
F         0.83606842696352    6.40780705424582   15.34151641037055
F         5.23002027906373    9.76853798613463   15.84217069558873
F         6.26392142570537    9.23693975504733   14.03209991256288
F         5.55636724083853    7.70114447729462   15.36082955879718
F         3.51498266481007   15.49779444833834   12.91958771032488
F         2.99167607790413   15.46357161756304   15.00008280363001
F         4.36706584255117   14.01049286437948   14.22151771001896
F        -2.44308011841326   12.50831059575948   14.04820396126911
F        -1.71244116574341   14.13953733054241   15.24397500650200
F        -1.35734441337867   12.11402854001365   15.86312342867741
O         0.48712702905297    8.92853393288176   12.01000849472500
O         3.27542680357627   12.70940896055878   11.85330798841202
N         2.59444347914728    9.63477446705856    9.36114409090768
N         1.12378264990431   11.85417714705434    9.31671158019857
N         2.58766440805991    9.64164314326056   12.31393186243313
N         1.18896278399222   12.00671034876982   12.26251226533967
C         3.31683421342380    8.52994824389106    9.41590551632412
H         3.57684349802361    8.15525903917513   10.39870382284508
C         3.73638988517325    7.85075358307974    8.26841323228505
H         4.32259215520659    6.95209382353440    8.37344137727424
C         3.39853146299732    8.33333019630939    7.02532814435344
H         3.71075955260346    7.82752453683790    6.12442762289000
C         2.63202263921295    9.50742502283423    6.93834917957819
C         2.25024542830869   10.12318819664742    8.14897178696785
C         1.46669864800468   11.31692389246571    8.12507873269475
C         1.08358158327698   11.88288828574537    6.89079755977057
C         0.31758081226182   13.05986220533451    6.93072199590310
H         0.00558932890926   13.52940803959291    6.01032633931778
C        -0.01959620377739   13.59217148397666    8.15350310714898
H        -0.60553269989564   14.49450462164262    8.22256980128797
C         0.40088724641692   12.95994163287613    9.32721311277849
H         0.14001542842704   13.37336350840690   10.29412911899240
C         2.22646984785374   10.10200014087324    5.70778078439483
H         2.52617550544300    9.62073485528531    4.78932238963238
C         1.48805574580787   11.23885223910413    5.68502191742835
H         1.18755076720030   11.68247255120145    4.74805049748068
C         1.51907681582534    8.84998775833563   12.68474447178001
C         1.71586843061300    7.99833612554837   13.82973078313095
C         2.90063062524831    8.00551913663042   14.51341870876479
H         3.04399750968528    7.36896204586828   15.37447230357681
C         3.93638456850372    8.84911559052016   14.08396344303983
C         3.72470230292607    9.66305313218318   12.98278846590373
H         4.49044081954020   10.34797488779814   12.62812969916260
C         0.56870230733118    7.12135574901611   14.23446715731900
C         5.23642558355138    8.89003662013133   14.82411267637203
C         2.26095148679312   12.82821245003878   12.54860137677845
C         2.08788803168896   13.75714928329649   13.63577138901166
C         0.92192570426670   13.79076283018796   14.35026899612312
H         0.79614900388698   14.48594064445233   15.16756305885822
C        -0.11804771064348   12.91268478097853   14.00925550089019
C         0.07010958631957   12.02566353157713   12.96152082992720
H        -0.69977747496980   11.31393782456720   12.67533527754745
C         3.23673145546785   14.67071453257755   13.94295511209233
C        -1.39774228936587   12.91695860506034   14.78519897936003

