93
CSD_code = KESSUX | q = 0 | S = 0 | Stoichiometry = C30H30CdCl2N20O10 | MND = 7
Cd        7.28768008369405   11.54532336679827    3.26695469137036
O         6.90747928841609   11.81246134381461    5.81173102615688
O         8.20725832436619   13.85083418925179    4.00534489052074
O         7.63612994379361    9.71918181708444    1.46367014392920
O         6.55656193056034    9.26062109250693    4.24005409378184
O         8.65861505874048   12.55656341181518    1.31985939952049
O        11.91211730738970    7.16671440306144    6.15409606467957
O        13.10405951646922    7.68180670272255    3.09428110810474
O        14.23483893148096   10.79810901643630    2.92360948035140
O        13.72878692235785   12.20881689863635    5.88129978338469
O        12.29923586357752    9.96966570611859    7.88059987647507
N        10.95626561217546    6.99781438586705    2.63616989851776
N        10.78130916020403   13.38895543740419    1.61448607166300
N        11.83142152132584   13.33185958027786    6.53686204629325
N         9.70601535398108    9.25243978744250    0.57887587183590
N         9.62734388863465   14.08407669038021    5.79822846617415
N        10.52234574736417   11.51709946782145    0.46498807830497
N         7.89053450197157    7.39185449638995    4.12290270949960
N        10.42063798108966   14.42277627924519    3.76161565620303
N        12.73378925656396   10.76389827274682    1.18097051063836
N        10.09037571569049    6.62399618231236    4.85881238761390
N         7.55755654355380    8.33967674873715    6.09340994729364
N         7.83922572870110   10.37807967759619    7.34778409202724
N        10.03661809824513    9.61614030724372    8.09711956003282
N         9.75461114433198    7.57396711088136    6.84013245192527
N        12.62947869694160   13.67484270965348    4.49083425135118
N         8.58919442106107   12.45612711035785    7.24101794558805
N        12.99339554378380   12.64393756228763    2.33801266699719
N         8.75342813628831    7.75826982133580    1.90238825192561
N        11.91386935259820    8.49605729807980    1.30229076737385
N        10.79157351282089   11.70378018629909    7.98529996796323
C        10.68051958937674    8.19510271150536    0.63601872382132
H        10.88344803057944    7.83241128927920   -0.38759742815063
C        10.09227424134567    8.18127012157124    8.09680282583110
H        11.14223881294746    7.92042415772327    8.28502762536475
H         9.43360480703346    7.78855197982684    8.88255105679379
C         8.86902171179705   10.40807455577911    8.35246018084707
H         8.43214129482691   10.13173806278014    9.32884008806827
C        11.56982993126069   14.63426407079491    4.60157907810865
H        11.96315343339509   15.65219436230977    4.42949073666913
C        11.01260476087439   14.39529866373875    6.03246677770318
H        11.07993654996597   15.27263298829184    6.70049466017380
C         7.00199895693054    9.25337998110651    7.04844671591548
H         6.77958917462761    8.71307239041214    7.97633506501197
H         6.08828818936418    9.65883938474717    6.59468453136531
C        12.93054431491531    9.38811488149144    0.81993627736424
H        13.00528682055291    9.30247674114332   -0.27213981594757
H        13.86200412527212    9.07812043925775    1.31209227178664
C         9.30448292418231   14.04195811958284    4.46451649227578
C        11.17886299377998   10.37750768174679    7.93040563608182
C         7.29441279823122    8.45708959282625    4.75113606272881
C         9.85362114969730   12.46786772977551    1.19534945111785
C        12.81603897475802   12.94129704139465    5.64807427285096
C        10.73563391793012    7.16774657597805    5.95430334079438
C         7.73169556028898    7.16682017798907    2.71586508537787
H         7.70029207617212    6.08739557570703    2.52549931229091
H         6.78851768660448    7.64959081672892    2.42876645796613
C        10.82956487787375    6.09623249421293    3.74664498550244
H        10.36509925406238    5.16060760832885    3.40827132159018
H        11.84987870599769    5.92776790762974    4.11617302302850
C         7.72252521323255   11.56212209039987    6.66286023804429
C        10.01191389067216    7.14610288542641    1.56749613685130
H         9.82431790556502    6.16711207357618    1.09114603938231
C        11.94741278341738   11.71614559334349    0.45253341227942
H        12.29733493045808   11.77229374060584   -0.59386777859383
C        13.50046448386776   13.51549686057947    3.36034940322791
H        13.72206699487897   14.49958561108822    2.92681033035686
H        14.40838957182170   13.03202399257025    3.74485314269600
C         8.60985267662229    9.01595441310717    1.37088920879403
C         8.65032405319694   13.82362979324637    6.81460825459333
H         7.67282280286601   14.05450522781096    6.37154139786784
H         8.85479337974273   14.46219321192684    7.68228145014098
C        12.12946707316589   13.03077475546863    1.26105823348844
H        12.58703521804336   13.85794851704142    0.68925656108530
C        13.38994016726343   11.32136137076832    2.26299916528190
C         9.82559729505273   10.45265889659150   -0.19610405639682
H         8.80310481196827   10.81215482367069   -0.37055666156655
H        10.33301062840965   10.22226508668714   -1.14049899855217
C         9.39712965302036   11.86764594687337    8.27613501529317
H         9.27193016006020   12.44714742129439    9.20836292077915
C        11.75026993631666   12.76461505245300    7.85352201357893
H        12.73094244605750   12.30974465377899    8.04677476502808
H        11.52407432241917   13.55595203813963    8.58034772825826
C        12.09959140061153    7.75375221599762    2.45398089927512
C        10.39541640621340   14.56672851735953    2.33539498311200
H         9.35161975623097   14.76962121244225    2.06256971980304
H        11.05093932919932   15.39666711116123    2.04582696451759
C         8.66614874228338    6.57337017055049    5.01682386702327
H         8.31609173303814    5.52778192805696    4.94816202707065
C         8.43138302277053    7.23864038409401    6.40155671879002
H         7.94241469914020    6.58380325464681    7.14493070777084
Cl        9.49519458662366   10.78985012931772    4.00239183067360
Cl        5.22664117295324   12.25265585565952    2.58426739021685

