98
CSD_code = KETFUN | q = 0 | S = 0 | Stoichiometry = C43H43BN6NiO4 | MND = 5
Ni        4.52812338563256    7.07453191550726    5.41365235349562
O         3.59151887279018    5.90037322290313    4.29601025071912
O         3.14378727291564    4.41342537179275    2.69368895702480
O         5.99311515020819    7.10488405999141    4.17106263301584
O         7.15403915818889    6.72281141048361    2.30499701616543
N         3.15188300606971    8.79863230122868    4.68891968944613
N         2.45907843698952    9.31226373334987    5.71559580403885
N         4.52667949834363    9.27722009349666    7.08382802380368
N         5.32669902103072    8.32704221526600    6.57710113864044
N         2.73402981484105    7.64433621747768    7.52511375343136
N         3.33766084529404    6.65581235716222    6.86002775301213
C         1.07505146575824    7.95937435180747    9.36769759518264
H         1.71568760668768    8.58312914353550    9.98835335009248
H         0.48584451887005    7.31021052490810   10.00968756352553
H         0.40393764232962    8.61314715083871    8.81479621077092
C         3.96615332314411    5.33396970166331    3.23983259906597
C         1.88838848093539    4.20192169141888    3.32613113807172
H         2.03765833107087    4.05282677580398    4.40067534074996
H         1.51707838414390    3.27687957238598    2.87836404953014
C         0.91665875550160    5.35026440479139    3.08507356711767
H         0.80389600816797    5.52527908436637    2.01775452000735
H         1.29169291944778    6.25697136466300    3.55306111371722
H        -0.05187899382867    5.10397104021490    3.51227025355372
C         5.17986563638895    5.53453173460627    2.56576931448586
C         6.08586422363754    6.47605461185902    3.08840249472866
C         8.08176506148164    7.69753686555141    2.76063396530109
H         8.56455460178591    7.33820876560760    3.67571701989819
H         7.55064376958801    8.62633692676200    3.00063837663713
C         9.10501268195998    7.91912867624288    1.66126960149652
H         9.60615698327830    6.98385445200628    1.42803943610911
H         9.84082710675104    8.64874329088461    1.98744782415709
H         8.61768266514093    8.28084214580011    0.75998389853454
C         5.48909784332250    4.81997306074943    1.31421213628465
C         4.57512932476941    4.77845999028528    0.26546851182960
H         3.62554769324563    5.27854251856528    0.37226836097460
C         4.87901198525236    4.11469062327694   -0.90826157113829
H         4.15979043225745    4.09531025763670   -1.71526432424046
C         6.10087467193518    3.48098639607774   -1.05793899842554
H         6.33880288502285    2.96562773107901   -1.97759326281833
C         7.01553211740969    3.51171920694454   -0.01911292620079
H         7.96978798268754    3.01458101777721   -0.12562781545320
C         6.71131666118795    4.17160776716496    1.15658018781493
H         7.42696704929581    4.18575846511918    1.96523940060040
C         1.32409772892180    9.89448018845030    5.27459094397032
C         1.28692099617968    9.74303334820664    3.90391310081343
H         0.53530098862406   10.10206252627609    3.23039668055690
C         2.46509153000940    9.05095397814281    3.57694420479192
C         2.94776270809229    8.68069721062130    2.25282882819756
C         4.30945448222188    8.73725871258252    1.96773392284502
H         4.98573063242118    9.06186554911854    2.74470021495480
C         4.77572413058724    8.39424411546012    0.71315715146146
H         5.83373060061895    8.42857870490071    0.49954824523709
C         3.88859331225068    7.99878478208833   -0.27390356775070
H         4.25541294950469    7.72519297098153   -1.25226176082277
C         2.53114675707238    7.95166530968601   -0.00176334149916
H         1.83665467509059    7.64438979707290   -0.77143719973339
C         2.06071515975616    8.29168736664408    1.25265343452181
H         1.00233199237256    8.24609348646930    1.46686064188016
C         0.33327497165857   10.55082886478462    6.16790595734497
H        -0.41107825502033   11.06841604998324    5.56858799438498
H         0.82023108308118   11.26732569703032    6.82629495784041
H        -0.17343804685837    9.81103575297249    6.78701107243485
C         6.59391182273878    8.71145468430616    6.75930617452370
C         6.59700441159977    9.96465812303197    7.38304347806179
H         7.45211213259397   10.53753731813094    7.67829797100018
C         5.26730337833630   10.28641987958673    7.57344207826909
C         4.69343721370288   11.50941961420993    8.19179702596292
H         4.00303208894317   11.99436204958127    7.50484214073694
H         5.49397135984036   12.20140089058290    8.43874635429926
H         4.14860410255278   11.26325790780740    9.10154113374952
C         7.75313254066217    7.88359097785104    6.45620389801969
C         8.96430095779264    8.45675226099975    6.07666032037246
H         9.03506228157839    9.52766382652906    5.95796125829811
C        10.06601848887169    7.65746119985344    5.82891631933630
H        11.00092340724997    8.10916815960127    5.52994943494646
C         9.97247051253925    6.28061388002258    5.95381749865910
H        10.83275118604534    5.65944118310001    5.75196991333870
C         8.77358511416131    5.70417403121608    6.34338845900849
H         8.70039424331003    4.63168667845691    6.45281408761920
C         7.67570435549043    6.50079480355478    6.60357757221289
H         6.74654210003845    6.06694716280503    6.94866513897763
C         1.89089792701717    7.13362505696489    8.44013881587868
C         1.95432036248710    5.75687528558074    8.34571119753767
H         1.42425802785038    5.04498183080136    8.94463947061470
C         2.88379289522231    5.48985155837154    7.33122504089732
C         3.31257868833521    4.18677191250419    6.83851240445284
C         4.56389166609995    4.01618395387960    6.24827524340148
H         5.23780698708018    4.86633569908203    6.17502833498557
C         4.94212781221633    2.78980871946828    5.73826617714205
H         5.90672999887111    2.67855880349175    5.26508970184010
C         4.08449774233080    1.70521335542893    5.82793022267670
H         4.37820952881968    0.74691280470966    5.42633263148723
C         2.84694196475129    1.85673856349939    6.43111038429947
H         2.17420060414043    1.01437574829148    6.50224475468747
C         2.46045646374642    3.08648907483352    6.93129703939927
H         1.48289302273380    3.20341952269047    7.37489829947913
B         2.99587716698992    9.11455382927517    7.13414650790563
H         2.50828476561439    9.85483302889573    7.91078572987610

