60
CSD_code = KETHAV | q = 0 | S = 0 | Stoichiometry = C25H33OY | MND = 12
Y         1.35316821874228    0.61843449573158   15.06329451057075
O         2.88058494068420    2.06459605364485   13.43688077171779
C         3.06308900491486   -0.21200352675150   13.91830740807532
C         3.60652774885806    0.87938900420078   13.20461056229694
C         4.71320819838659    0.79390073467663   12.38159780183480
H         5.10603023805063    1.64930962424712   11.85266635453264
C         5.33739418787708   -0.43916795299793   12.23791778729914
H         6.20416125136758   -0.52359077254246   11.59885269271602
C         4.85109856903065   -1.54180572630307   12.90882539878127
H         5.33914688507018   -2.49949826772038   12.79616010274174
C         3.73554235300772   -1.42252504092244   13.73212524252069
H         3.38534800099639   -2.31300597173352   14.24737612099348
C         3.33988704425465    3.24107691863055   12.80190308907653
H         4.35380189516151    3.49781680455916   13.12629385048305
H         2.65721074611011    4.03858134754904   13.09340656752178
H         3.32257501646196    3.13923386274246   11.71149080504279
C        -0.47924427186285    1.59537972518046   13.36333374997717
C        -1.10592300968007    1.47706287395844   14.63074337548507
C        -1.14150314507082    0.09971236496013   14.97228095489836
H        -1.69806743552507   -0.32734658929701   15.79721689004564
C        -0.55329770954699   -0.63997908937749   13.90837223894724
C        -0.14981732947447    0.29167674912875   12.90800215890520
C        -0.38027741971194    2.87009188336117   12.57263087554132
H        -1.32440583104363    3.07341815757547   12.06128988474809
H         0.39931732349537    2.80550805905703   11.81579174304520
H        -0.16719739803030    3.71994543521266   13.22227602981397
C        -1.82093977540350    2.58283191499851   15.35546786880536
H        -1.17679669678039    3.44698074387365   15.52597969479846
H        -2.19586564237354    2.23221528474396   16.31533375540584
H        -2.67502891486946    2.92258539977137   14.76546226089752
C        -0.56148870993162   -2.13879563147563   13.76841122443616
H        -0.81415911264276   -2.60983510926646   14.71821720652475
H         0.40558181254095   -2.52123283073754   13.43468039304922
H        -1.30832281110322   -2.44359273177050   13.03180821799077
C         0.39581100130725   -0.07487683551408   11.55712650633676
H         1.00734159513753   -0.97578821103656   11.61335501097901
H         1.00842005598324    0.72731230062133   11.14681043518113
H        -0.42112457179328   -0.26436551454266   10.85596301187245
C         0.97687302831237    1.57313512207392   17.32231789134608
H        -0.00236010383022    1.87389689502556   17.67229886487219
C         1.59031056475579    0.31367829507167   17.59304771255259
C         2.96594590569959    0.42981778278125   17.25943392362218
C         3.19904040713709    1.74526427748272   16.78647962006243
C         1.97487992421567    2.45548963210603   16.81935656698867
C         0.93833501517137   -0.83719722294417   18.31514657761062
H         1.10993670440850   -1.79080852598229   17.80895369585379
H        -0.13632329093369   -0.67648287593463   18.39345135050876
H         1.33919365462852   -0.92420615864637   19.32730563453325
C         4.02710194175112   -0.61067007525889   17.47221173106451
H         4.64288704542002   -0.35323012376751   18.33660524413442
H         4.68549621420148   -0.68335011735446   16.60551616316376
H         3.58344852062991   -1.58775958048846   17.65347045624679
C         4.54385593994280    2.29501666273331   16.40987646542257
H         4.44753643996903    3.28955535574714   15.97962157239053
H         5.04647540666779    1.64854645519619   15.68785239000666
H         5.18526702440224    2.36553409639525   17.29064832036659
C         1.78901931813495    3.92894342133457   16.56769418810227
H         0.77639821111476    4.23016499450974   16.83220239330291
H         1.96742497748565    4.19689242373054   15.52268126381614
H         2.48147084813445    4.50791932975229   17.18066542014683

