49
CSD_code = KETHUN | q = 0 | S = 0 | Stoichiometry = C18H19MnN4O7 | MND = 6
C        -0.12906026644594    5.16644071090308   10.25903479775111
C         1.53352590611040    5.12374411381409   10.08901642901199
C         2.00143875937350    4.06507295953495   11.07996033844782
H         3.08603157210260    3.97003756346988   11.13336358181079
H         1.60431285449067    4.31231966504712   12.07080252545827
C         0.91874347781243    2.06989131484361   11.69503492939825
C         0.09718166785799    0.94859166478539   11.13770086341989
H         0.05751582009455    0.12621673890032   11.84515128018466
H         0.48979325785153    0.62415115952159   10.17876736428868
H        -0.90946071157213    1.33656824996376   10.98824908154288
C        -1.22645469261936    6.74741155572053    6.97082220290819
C         0.86013479128149    8.18657336611203    6.90034005112739
C        -0.99998320267313    8.45200746881569    8.62488882699520
C         1.26465850498588    5.47851164487911    5.22692796121929
H         0.18689334064327    5.62643149256309    5.20755403648372
H         1.53966938337076    4.74401900003514    4.47428259479642
H         1.74029248487932    6.42587854112860    4.97553098059018
C         1.71236549616646    5.00814444933261    6.56308313398266
C         2.66637697779500    4.02329837596291    6.81883500969546
H         3.21252916897973    3.45415893411070    6.09480390981271
C         2.78370944028422    3.93064031598364    8.18980454413879
C         3.76433784895155    3.05886154386496    8.88724850456323
H         4.32743986263468    2.52055348243658    8.12823965223656
H         3.27775558266173    2.32965594251213    9.52969096735860
H         4.47068125902010    3.64507412742166    9.47475075894622
C         1.84063080262369    9.93158371578985    9.41652744058643
H         2.28890737253480    9.97330132359558    8.42465527375423
H         2.29065698999128   10.70245525795650   10.03635132445712
H         0.77646722105299   10.13439910437112    9.31248303611516
C         2.07286241817699    8.60185203379783   10.03617203552642
C         2.89555179499873    8.32733923910986   11.12865361567226
H         3.46126764409886    9.03386720901063   11.70041753379494
C         2.83892365849850    6.96396962741543   11.33762544061418
C         3.57501714117158    6.23877736539192   12.40573667594732
H         4.11187968338376    6.97730996311758   12.99657545060411
H         4.30589487000176    5.54273493057349   11.99778843406112
H         2.90750526121235    5.69560595538541   13.07018359616289
Mn        0.08870920138305    7.13704820463158    8.10887265926980
N         1.26713456236606    5.48996996807343    7.71830109808261
N         1.89997961761066    4.82139676034118    8.71276887698038
N         1.53528083017021    7.46593608848873    9.60205918397676
N         2.00545480152880    6.46737452682090   10.38808691221290
O        -0.71945941512251    5.91941314137751    9.47811246975095
O        -0.56946935187910    4.48336508349182   11.15289288003057
O         1.43561371950996    2.82221533082677   10.69561048484296
O         1.12620815955419    2.29433038257037   12.85293807098856
O        -2.13721289624071    6.57813922014935    6.29422421289796
O         1.29794670469697    8.89035536035376    6.09471884873904
O        -1.78057937535809    9.24710582569686    8.89666011876209

