79
CSD_code = KETHIC | q = 0 | S = 0 | Stoichiometry = C26H38N4NiO8S2 | MND = 6
Ni       -1.67749390717990    4.29766444072403    5.34522972257094
S         9.03545635450180    6.87304784904103    3.74547472097950
N        -1.20072972787714    3.76220646789623    7.21628463042313
H        -1.18728362857456    4.62892911700418    7.75113924795814
H        -2.04763068929339    3.22354473518454    7.48963632879522
O         0.29386503072818    6.04611838106695    3.27826430768544
O         0.17833197585597    4.72721747542087    5.08251274496060
O         9.64646541551740    5.74441634535761    4.39425347826195
C         7.26187633497899    6.63177913267689    3.69544679745346
C         2.27807038802845    5.48463220596886    4.44131020981010
H         2.64124397569845    4.93710586571984    5.29754236676784
C         3.06343487835635    6.16503613771174    3.60467840767300
H         2.57126893874439    6.67508297527418    2.78467385759910
C         0.79348251051048    5.42991192831231    4.22909765033190
N        -1.24208878750437    1.93216858042198    4.90808733704282
H        -2.07899669672312    1.48243795368132    5.27524492208574
H        -1.19668243303294    1.73751284112940    3.91150244263796
C         4.50772675330435    6.30676269529065    3.66499319483013
C         6.51448729799828    7.28409383111611    2.73385385181634
H         7.02262065728239    7.89379685422936    2.00324967019897
C         5.14298625619361    7.11962485939054    2.71947041703322
H         4.54765986816637    7.61956888398996    1.96970130066973
C        -0.14733550835292    1.52985098551768    7.08073640442143
H        -1.10357517607953    1.13793910407356    7.43568298726658
H         0.65165633213032    0.94215493528636    7.53682277301030
C         6.66287506028746    5.81747572644498    4.63792184482171
H         7.28700909554235    5.31018758460166    5.35714221191658
C        -0.00958509180130    2.97928845344022    7.53971203269660
H         0.15349109964512    2.98321159021840    8.62802736981135
H         0.85719170180567    3.43907399737640    7.05743904492750
O         9.49991759602145    7.23953662272001    2.43512504376584
C        -0.06729834665096    1.36193289112174    5.56509225558809
H         0.81428145136323    1.88404442815615    5.18455292477050
H         0.04259639092163    0.28788358768433    5.33820327643180
C         5.29157540829487    5.65465853452041    4.62270970672809
H         4.82360730233688    5.01339418061673    5.35249270390618
C         9.21891181436899    8.31895213948167    4.83561969025042
H         8.80105089423513    8.06611351028178    5.80117574813462
H         8.69485292888404    9.14981218246950    4.38204343683749
H        10.27613063295943    8.53624503498231    4.92221238541374
S       -12.39044066255024    1.72287002773851    6.94546368428232
N        -2.15416146745319    4.83324664849588    3.47421237817481
H        -2.16769733682486    3.96643817824777    2.93950895668331
H        -1.30719461688693    5.37181813675433    3.20079958741681
O        -3.64884832533224    2.54956405407065    7.41247554218474
O        -3.53329467801726    3.86824157251589    5.60802004057907
O       -13.00139122725840    2.85150983776647    6.29665689366595
C       -10.61682519550575    1.96391840619700    6.99530828504332
C        -5.63306421555376    3.11095079429999    6.24928720709078
H        -5.99622003538310    3.65800411791777    5.39250799598763
C        -6.41839114618818    2.43056503292123    7.08588412743419
H        -5.92619586115899    1.92041593513657    7.90585578579835
C        -4.14846611156058    3.16568496209343    6.46151760041625
N        -2.11284106340438    6.66323101081418    5.78234600657447
H        -1.27596223215018    7.11299933979171    5.41521898462366
H        -2.15826603381793    6.85788892195905    6.77891197112067
C        -7.86268431392266    2.28905972136948    7.02576523632987
C        -9.86940788177027    1.31160179031008    7.95689308331832
H       -10.37753277016234    0.70207391611304    8.68767024391842
C        -8.49790251220310    1.47620171848278    7.97132941074819
H        -7.90254479156067    0.97620513596305    8.72104309801281
C        -3.20760011369959    7.06561215973060    3.60961684310181
H        -2.25133481494059    7.45750308711118    3.25471416798847
H        -4.00658772279806    7.65327152182746    3.15347898376995
C       -10.01784716693283    2.77814291026131    6.05276074329265
H       -10.64202208307588    3.28552854497784    5.33364002823577
C        -3.34528800489247    5.61614981921721    3.15073804788478
H        -3.50832505942369    5.61216856962666    2.06241413936577
H        -4.21211070740148    5.15637798980961    3.63295924254496
O       -12.85485250487188    1.35647243720602    8.25586540261517
C        -3.28759778544483    7.23348566364836    5.12526822243334
H        -4.16913318688377    6.71138608978228    5.50586722454624
H        -3.39757430830966    8.30752176276070    5.35214690778493
C        -8.64655466955536    2.94107751327699    6.06800755021079
H        -8.17861860081804    3.58225548918332    5.33811816985337
C       -12.57403825391484    0.27692332656249    5.85539803591481
H       -12.15632772884355    0.52965969771631    4.88974091337171
H       -12.04999182123712   -0.55396804879315    6.30893651142087
H       -13.63128733986530    0.05972716150991    5.76899329797654

