47
CSD_code = KETHIB | q = 0 | S = 0 | Stoichiometry = C18H19MnN4O5 | MND = 6
Mn       10.28693646241954    0.85044054816008   13.71372317433674
O         8.55468937317754    1.17826075594760   12.77509814141484
C         8.37850382198163    1.34726681749842   11.56090424709008
C         9.73704655845370    1.23884970185235   10.60798961110334
O         7.36060905953842    1.62539846617010   10.96946311543590
C         9.22279016867921    1.36823634866148    9.18280935139344
H         8.63037539398266    2.28384966484185    9.13784715693936
H        10.02983473545413    1.44627065592791    8.45808090649801
C         8.30403758043995    0.22875082583857    8.82155890796602
H         8.22210856374583   -0.58030874005465    9.53390445613889
C         7.60509165023417    0.19615823486818    7.70280273914491
H         7.64923074994887    0.99542939280401    6.98110223107092
H         6.95012445768801   -0.62390239568198    7.46832181955001
O         8.99365804410156   -1.00280592868455   15.57112528955202
C         9.51410292287600   -0.33085099054918   14.80023021077652
O        12.84898957912780    0.36584430347421   15.05221345465036
C        11.85957115386657    0.55862685517995   14.48524423305110
O         9.49498860321462    2.69495470465373   15.84316055620380
C         9.84250682769772    2.02432423876648   14.97949845332658
N        10.60410486891668   -0.43168426792218   12.12904664557595
C        11.53127837409146   -2.42925802179134   13.29083562285213
H        12.37039025091180   -2.00017595870609   13.83690167157831
H        11.79732121691863   -3.43703315271780   12.98232552453438
H        10.67825634122470   -2.47448108906032   13.96502704591262
N        10.45573921410927   -0.00541325379205   10.85274367235990
C        11.21006792507243   -1.61379979542549   12.09130530973676
C        11.48767463371622   -1.93994636012524   10.76359268065148
H        11.97937712817423   -2.82167543993510   10.40698299355480
C        11.01979808218054   -0.89546091334704    9.99377097642044
C        11.20972887614578   -0.78390935671633    8.52381442648357
H        10.26663365018676   -0.80238156525221    7.98067810512639
H        11.80444172755056   -1.63584798864394    8.20205514947886
H        11.75456480435207    0.12282892613384    8.26322939321792
N        11.01082708780236    2.28620317616704   12.34346247155083
C        12.45710820359940    3.66029468245821   13.83754782914446
H        11.73878721985005    3.70410043141053   14.65411939686268
H        12.96168443691812    4.61962406409296   13.75804374567846
H        13.19327508240741    2.89466370652106   14.07862845985848
N        10.60630345494563    2.32334821033829   11.05155948477289
C        11.78274350568985    3.34955496199049   12.55098667521598
C        11.86583969005899    4.08759682481164   11.37102163329138
H        12.40658770483430    4.99916463415828   11.21931802054509
C        11.10907321429940    3.41799272417915   10.42971942635786
C        10.92221442993383    3.85982941396743    9.02271631233012
H         9.87377738214819    4.01482184879869    8.77946635952787
H        11.34703273183561    3.15270436256383    8.31205505441389
H        11.44177305549944    4.80754573616827    8.90136785732268

