83
CSD_code = KETJUR | q = 0 | S = 0 | Stoichiometry = C32H30B2FeN6O12 | MND = 6
Fe       -5.54808370825978    5.54808279169837    6.67272117273683
O        -7.54322657379335    5.20855410256360    8.67739329337899
O        -3.61637040829080    7.63228597934327    6.52403590143020
O        -6.73259927360761    7.44042272839460   10.04612458183765
O        -4.57796662951357    8.86483411315230    8.76998744802863
O        -5.88381681874915    3.41500426157724    8.52393318596670
O        -3.60106929439647    2.15252122300863    7.68603611003688
N        -6.59650302908994    6.02516740679992    8.18119903140713
N        -4.57295463774979    7.05913109045875    7.27447835666943
N        -5.05615953840513    3.99119636490928    7.63517372468182
C        -6.17859347885063    7.03021186345498    8.88254568916720
C        -6.21711993188352    8.61465891628862   10.55165374569950
C        -6.77235772024248    9.10968283964885   11.72260785863353
H        -7.57100278867327    8.55097062935065   12.18252258998387
C        -6.30067651371901   10.29024846454170   12.26774546194013
H        -6.73777957557489   10.66793260992369   13.17835222114257
C        -5.27452082434128   10.98274125174965   11.64627234336908
H        -4.90705139306670   11.90444964103208   12.06860646173099
C        -4.71339533781386   10.49480715153487   10.47992128190980
H        -3.91278007836905   11.01116837164756    9.97603363327303
C        -5.17877395668303    9.31024901280699    9.92778769114811
C        -5.06226203460847    7.69674341443880    8.28999065003146
C        -8.28727184597867    2.80584216528089    9.16200451691966
H        -8.01530137458934    2.88316862093304   10.21429746613763
H        -9.31824815244167    3.14679334271156    9.07153835333157
C        -8.20091806312074    1.34189560200784    8.72715786303667
H        -8.45773458420724    1.27591357589909    7.66937514014433
H        -7.17069105757166    1.00234641233498    8.84101887965909
C        -9.12982614599944    0.44138657329109    9.53816303459391
H       -10.15869830189511    0.78945393894344    9.42357988759016
H        -8.87134357868466    0.51776290557975   10.59654022980575
C        -9.03631354773614   -1.01512290125391    9.09857118727242
H        -9.30828932406447   -1.11276197879955    8.04983460002432
H        -9.70462846183168   -1.64070831676520    9.68685852430139
H        -8.02088149803495   -1.38516947958182    9.22269084415303
C        -4.02346524516555    3.34215422902413    7.20021873453969
C        -2.40837072755206    1.70252492965998    7.16134147271694
C        -1.90580590863178    0.50232634009804    7.64254350106390
H        -2.47155525073440   -0.02069587738936    8.39618871048983
C        -0.70895135126795    0.00780034766520    7.15638480092987
H        -0.32544547046564   -0.92584716969939    7.53603018592704
B        -7.32967200963196    3.76610982208350    8.29043349064328
O        -5.20854645671960    7.54322333722114    4.66804863566143
O        -7.63229531798698    3.61637913234652    6.82140476198938
O        -7.44040904624792    6.73259719151983    3.29930989792377
O        -8.86483839526427    4.57797949401555    4.57545332873983
N        -6.02516378894238    6.59650285622486    5.16424280880461
N        -7.05913472063373    4.57295896190293    6.07096160947055
C        -7.03020610332471    6.17859458711413    4.46289265644998
C        -8.61464394534939    6.21711890145012    2.79377709078711
C        -9.10965674309386    6.77234917843156    1.62281521421892
H        -8.55093640735695    7.57098649792787    1.16289705535383
C       -10.29022235967822    6.30067114589066    1.07767528791647
H       -10.66789849374740    6.73776926634649    0.16706332330636
C       -10.98272694819576    5.27452721094849    1.69915455705545
H       -11.90443721850687    4.90706271395152    1.27682065630118
C       -10.49480318896835    4.71340827843008    2.86551265197524
H       -11.01117358962984    3.91280222209320    3.36940551915014
C        -9.31024401977054    5.17878223731157    3.41764742577452
C        -7.69674402135860    5.06226745247420    5.05544837870793
C        -2.80583738996612    8.28725582682688    4.18342553219654
H        -2.88314571264237    8.01525427624011    3.13113889983918
H        -3.14680964217966    9.31822827863201    4.27385821133171
C        -1.34189353708234    8.20093869594218    4.61829166050288
H        -1.27592825324981    8.45778215015587    5.67606909837435
H        -1.00232266096392    7.17071577387656    4.50445909775947
C        -0.44139613089126    9.12984317593877    3.80727073220555
H        -0.78948926410401   10.15871051211986    3.92182148565427
H        -0.51775317661447    8.87132971514951    2.74889885467797
C         1.01511086901689    9.03637437841403    4.24688578877923
H         1.11273074648729    9.30837691263827    5.29561800424350
H         1.64068661877060    9.70468993412508    3.65859054338047
H         1.38518547355382    8.02094855538115    4.12279349036550
B        -3.76610289575437    7.32966364981537    5.05500722109927
O        -3.41500142362438    5.88380668831527    4.82151175343135
O        -2.15253073170233    3.60105054241441    5.65940814226489
N        -3.99119751599515    5.05615265735288    5.71027139259580
C        -3.34216225348925    4.02345324622104    6.14522465817406
C        -1.70254856712427    2.40834249044424    6.18409294893674
C        -0.50235819979131    1.90576473424434    5.70288299320484
H         0.02066905162063    2.47151196312413    4.94923949410116
C        -0.00784449842915    0.70890252216651    6.18903439184321
H         0.92579530421847    0.32538534451399    5.80938088796340

