97
CSD_code = KETKEZ | q = 0 | S = 0 | Stoichiometry = C37H49ClN2O7Os | MND = 5
Os        5.79020033456911   13.30835688387129   10.58206746625311
Cl       -0.24529055550713   14.17572444959211    3.87489538977951
O         4.79331362109026   12.74894983227994    9.06909794994224
O         7.15414029914495   12.26364962384803    9.76110593861669
O         5.50085059646138   12.34865980979693   11.86539502226473
O         6.29651401560964   14.80742208761469   10.20182550643683
O         1.87705636689538   12.98615557402428   10.04427537721245
O         2.33221549600219   10.97349482441731    9.15132791851769
O         4.80271162317749    9.47650537892655   14.87352210667418
N         3.95722992457478   14.56658745629245   11.57040782856207
N        -0.46453057343485   10.31066162613716   13.56005361385506
C         5.49666249544238   12.07234127615154    8.04772493760030
C         6.76127668306234   11.46088683040504    8.67365687029900
C         5.77342133262919   13.00874597884688    6.83140349321957
C         6.89535180130924   14.01020119890705    7.11583773338564
C         4.48714419595243   13.77976784950831    6.51703218420317
C         6.14069845050643   12.14881319313347    5.61891124508818
C         6.61826710091661    9.96340381603078    9.08876181792397
C         6.49581819113614    9.09274333824031    7.83584348938762
C         5.41016345798341    9.74004512592955    9.99826352445161
C         7.89320769137595    9.57334011575148    9.84460989065625
C         4.54450149301973   15.35319072912070   12.66443443349294
C         3.47484255778970   16.19427827527242   13.39608130311363
C         2.18673346133602   16.10480316498723   12.56616573176040
C         3.46228732993337   15.48529713644465   10.53867845087025
C         2.51861212808256   16.54100970964403   11.13951279362561
C         2.86767317781980   13.75431294946270   12.14086081495970
C         1.68234281593814   14.66366116388346   12.49900328080818
C         3.27415736942655   15.76772611545548   14.85409693330905
C         4.44118111657090   16.19508127610062   15.73743055175259
C         2.43844856776908   12.54949888229912   11.28163359842001
C         1.44256664548126   11.71793809298205   12.06243218859927
C         0.09810628177669   11.81660266753174   11.79896413809642
C        -0.81456828730440   11.08436453538222   12.57279395421264
C         0.84509805495809   10.17533356148576   13.83400150970325
C         1.21228124963682    9.32463815464832   14.90099049128114
C         2.52099877135203    9.13172197752560   15.21603059842788
C         3.54262777477790    9.77032688852767   14.47190453207978
C         3.21600121306728   10.61647727514717   13.43753979515856
C         1.86637172236246   10.84782410195263   13.10167205830185
C         5.88975849549190    9.97554085616264   14.12460023625665
C         1.91132772298035   12.09843674254313    9.04310824807510
C         1.35098392214010   12.64788404376659    7.78377510066941
C         0.87829231146615   13.95322484439430    7.68257716883989
C         0.38694922964055   14.42452948286016    6.48081403921870
C         0.36449121024462   13.58585564657404    5.37513102305079
C         0.82348909139664   12.27860204938685    5.46153222329449
C         1.31467562356724   11.81640958849461    6.66583194708284
H         4.80417088948951   11.29136017819698    7.69950237223410
H         7.60364888711458   11.50249982488688    7.96641420753036
H         7.86001828969348   13.51721492726244    7.20044212259502
H         6.95473831136450   14.73384025088531    6.30496234783529
H         6.70645928818003   14.54578350238965    8.04371875450418
H         4.20524239246331   14.39827642533566    7.36536546958662
H         4.63612057659423   14.41986222101049    5.65038163891677
H         3.67032483137722   13.09383567040140    6.30466186437622
H         5.32965431380945   11.46807687310491    5.36932771042938
H         6.32734003578355   12.78800830133181    4.75911032846042
H         7.03516836648604   11.56104245050120    5.80658333582057
H         5.58435676227069    9.31148143029173    7.28625682979527
H         7.34414709267438    9.24569444053643    7.17197795239374
H         6.47310779887955    8.04406881827206    8.12309121845765
H         5.50622003875194   10.35778166464353   10.88848735300813
H         4.47364783230616    9.98716118640814    9.50383640931460
H         5.36535776721293    8.69605196377229   10.30433907965504
H         7.83053064928851    8.54169855619034   10.18351151298365
H         8.76569152592680    9.67614402861403    9.20296817044986
H         8.02403607229652   10.22374342143415   10.70552411919035
H         5.03258138483756   14.65785695975307   13.35337176400639
H         5.31670891010760   15.99012973694532   12.22714828377465
H         3.79113782085471   17.24295708929441   13.40733125587070
H         1.41875301815305   16.75436776670157   12.99553535390790
H         4.33384476373332   15.95597642390863   10.07750863326892
H         2.96258979295852   14.88862926593349    9.77839467542410
H         1.60549645688312   16.61899526160828   10.54777762312516
H         2.99004066278372   17.52482860187778   11.15214226353827
H         3.27809502416954   13.30696126679096   13.05134253761349
H         1.24099155925387   14.35217122489802   13.44569309140586
H         0.91015855433448   14.59219070793814   11.73211045190605
H         2.35815688647317   16.22804924578512   15.23245408336744
H         3.15174399393727   14.68549267169591   14.91938605063860
H         5.37448042011527   15.76096652235642   15.38745772115949
H         4.54640153481504   17.27772588151445   15.73340851768055
H         4.27706260754596   15.87166339444711   16.76232230427528
H         3.31664143736015   11.93912070373612   11.04119315267427
H        -0.26687416603586   12.45129092528680   11.00559106165392
H        -1.87645794962598   11.15497322242497   12.37498923112394
H         0.42120032046216    8.83383090882062   15.44510773467420
H         2.82103545458924    8.48295267161866   16.02400135798011
H         3.99061822613344   11.09917712015877   12.86600729244656
H         6.78408345221585    9.61771012473926   14.63207099572018
H         5.87332937045222    9.59331466763617   13.10060355824459
H         5.90079149928278   11.06817854243698   14.09371957988707
H         0.89463884582238   14.59890706927204    8.54602203291028
H         0.02207045972009   15.43593598765027    6.39469606888551
H         0.79544349626789   11.63830335950881    4.59402384804877
H         1.67910084094070   10.80499035806554    6.76371022841867

