78
CSD_code = KETKOL | q = 1 | S = 0 | Stoichiometry = C36H34BrN4OPRe(1+) | MND = 6
Re        2.03205794527404    1.88101385826566    2.59660390062193
N         2.84402587548130   -0.22149313775372    3.28696967226982
N         2.58466372165089    2.44298543141024    4.16885659775322
N         0.16655245464668    0.98362534856543    3.61471986396551
N         1.40923559421720   -0.29413108118405    5.17461490873298
H         1.34029283123637   -0.70399769339987    6.09789087929794
O         1.41351662858370    1.07045007101337    1.11335308071258
P         1.14482128076887    4.03189988988434    1.85655761285817
Br        4.14378753353026    2.52581806692999    1.41846499781949
C         0.55412361377425    3.81385095969009    0.15997793962717
C        -0.78530710649530    3.56140129855307   -0.12490930029948
H        -1.52509281444885    3.58439806731425    0.66514535024321
C        -1.17461674000787    3.29782907804930   -1.42674693854079
H        -2.21528350208996    3.11053180352459   -1.64637265005365
C        -0.23311947511701    3.26889889004686   -2.44332608623264
H        -0.54195454689561    3.05933990715771   -3.45596623245941
C         1.10364871695319    3.50393827355825   -2.15956679406623
H         1.83913112200708    3.47456620298721   -2.94885079402943
C         1.50185514253389    3.77177306227878   -0.86289377799293
H         2.54588056941930    3.94463946523793   -0.63739291539503
C        -0.22843485276954    4.72891151019380    2.82259666714251
C        -0.38090252805421    4.36081731060210    4.15466621591199
H         0.30242538237353    3.63599496212617    4.57792840907811
C        -1.38399140049746    4.92778984681496    4.91964620193224
H        -1.50168515459330    4.64116791634375    5.95393944519299
C        -2.23284296109858    5.86886934494910    4.35949818819958
H        -3.01800636452257    6.30942971356433    4.95439107369778
C        -2.06669742979088    6.25659340130320    3.03903435432394
H        -2.71800689277243    7.00192964107586    2.60866358797810
C        -1.06309918063154    5.69608025309619    2.27019106838943
H        -0.92554421247296    6.00959652946393    1.24500780612686
C         2.28218299175996    5.44595159577819    1.81419587555264
C         3.21001586151375    5.57662130057893    2.84299531790854
H         3.27794093467552    4.80404043999433    3.59647378944852
C         4.04829721698515    6.67436136997346    2.87816260050597
H         4.77615246164807    6.76834747913223    3.66909722092759
C         3.95767595358425    7.64686165890004    1.89491081297270
H         4.61698142604569    8.50072927397161    1.91835411706286
C         3.02472900928552    7.52394188200327    0.87844641322946
H         2.95465045526229    8.28182266325867    0.11309340095258
C         2.18148353547043    6.42836452979687    0.83446369241114
H         1.46039753172487    6.33447768933851    0.03468375679346
C         3.89418986455478   -0.72032265434814    2.63589795182853
H         4.09320399502323   -0.30411521000462    1.65801313424779
C         4.71382338723269   -1.69803596918999    3.15897916878708
H         5.55164782311557   -2.06371240032106    2.59033339882008
C         4.44150126140138   -2.16911012185642    4.43753943027192
H         5.07187138243807   -2.91266842366383    4.89932820173718
C         3.34035695978135   -1.67806780077548    5.10570292710031
H         3.08717174990757   -2.03511149071861    6.09209635323770
C         2.53874417198243   -0.70852831768093    4.48948281381453
C         0.23633946823052    0.28123177011422    4.74726871906627
C        -0.90436825803299    0.09944378425358    5.54917581731242
H        -0.81947711144925   -0.43906291170123    6.48048488370518
C        -2.11681074023142    0.59544902940006    5.12965228270068
H        -2.99994340712776    0.46274071930920    5.73453970400102
C        -2.18652973111049    1.25216589750642    3.90370574109984
H        -3.11935664837179    1.63036851666151    3.52172395780585
C        -1.01818837121977    1.42688728654633    3.19780157231457
H        -1.01288646575145    1.94720037237837    2.24924984980501
C         3.15031636959557    2.70173242412297    5.35471701544825
C         2.40445143340038    2.72658829742677    6.54673942546470
H         1.33746753671485    2.55871708676505    6.50195464760662
C         3.02826264452577    2.96366102389403    7.75165760805853
H         2.43983637676333    2.98110421383832    8.65760591643519
C         4.40116309795335    3.18495452539234    7.82400486446937
C         5.14042018669203    3.16400380634518    6.64090756966193
H         6.20577373454341    3.33586846718908    6.68040229753078
C         4.54031700677481    2.93139054513470    5.42654476885358
H         5.11090623634094    2.91401611206502    4.50973210026374
C         5.07321747566136    3.45792736450954    9.12929784370546
H         5.99678341823486    2.88882498497809    9.21281197522201
H         4.42577262881920    3.20999875137268    9.96601466039323
H         5.33188248242124    4.51456089595617    9.19900407382741
C         1.14997522611231    0.36114038499867   -0.00831763544132
H         1.95764829098739    0.49104810961223   -0.74517594480016
H         0.20860888213356    0.69534510862022   -0.47170927748574
H         1.05846701381843   -0.71227225252339    0.22186285254082

