55
CSD_code = KETMON | q = 1 | S = 0 | Stoichiometry = C23H25ClFeN5(1+) | MND = 6
C         6.08470808140502    8.28569882496813    1.56055822845989
H         6.71920821426818    7.41300222527120    1.36938539761361
H         6.58225698058306    9.16105290435911    1.13996773188019
C         4.73397236574001    8.10896069949256    0.87747609976746
H         4.86736221623778    8.09283889023558   -0.21248299184520
H         4.30969620284198    7.14954513388157    1.17496502171762
C         6.86129982010574    9.50711698012231    3.48742075745669
H         7.81799384812501    9.44291401523674    2.95820637010137
H         7.06004282786316    9.31870976268720    4.54606567564271
C         6.25554031084450   10.87503091302791    3.38775787880569
C         7.01697253896225   12.02576749400003    3.28869695925662
H         8.09107196210794   11.95658252261815    3.21556155111651
C         6.37848417896182   13.25759067492917    3.29977306281302
H         6.94656647574637   14.17050684996779    3.22076592995915
C         4.99996121725880   13.27704329904325    3.43196683565157
H         4.45744467045965   14.20645602157579    3.47345101013366
C         4.31315657556419   12.07851406381906    3.50819761318174
H         3.24165266644089   12.04269527052048    3.61533838310034
C         2.42557476580419    8.69904316694604    1.08505579238896
H         2.24936821743990    8.37045351494258    0.05131111048307
H         1.75617451748826    9.53607812047265    1.30789628102047
C         2.12217416317629    7.60169598645542    2.05737739979625
C         1.04628842872354    6.74962797815970    1.86242802200585
H         0.43360009566889    6.86021258983790    0.98220132730250
C         0.76080338177232    5.78698091156572    2.81535027417137
H        -0.07992223418075    5.12294691771705    2.69535009422224
C         1.58115000118358    5.70946991209414    3.92961365852805
H         1.40293092833309    4.98534699339872    4.70719454551163
C         2.63916619625244    6.59133273340060    4.04054069866029
H         3.28205532925199    6.55199864287672    4.90546601012036
C         5.93834113808431    7.31906804399167    3.83581772739522
H         6.95106071025195    6.90529795043639    3.92799496249847
H         5.29249278328086    6.55881630779368    3.39144143262259
C         5.39143343970083    7.72923444971059    5.18195169040949
C         5.80166669136949    7.17470402725749    6.37899095684194
H         6.53950421489558    6.38752266238349    6.38652130214977
C         5.24406852693209    7.64130362125929    7.56430740618136
H         5.54099370590286    7.21745307556101    8.50999075813413
C         4.30943750943271    8.66222490389463    7.49961313190813
H         3.85520812746418    9.05817048200619    8.39254475013464
C         3.95750459516705    9.17228538795834    6.26120762175343
H         3.22360816840684    9.95459350674051    6.14697164110531
C         4.03135801560619   10.38641486906743    0.48863802908153
H         5.03917147727216   10.75486009473484    0.69888224883205
H         3.96004616061410   10.15916607783737   -0.58758799088340
C         3.07842831918693   11.43526676914324    0.79591565377243
C         2.27375904419950   12.29900614537874    0.98998717108321
H         1.57279447556777   13.05389183903682    1.18906237109452
N         5.89803318826819    8.51267672570468    2.99455630705849
N         3.79675227174730    9.17039363862625    1.27858859337228
N         4.91848600501049   10.89367380923676    3.46703285969450
N         2.92055404989135    7.52256588562343    3.13083122759469
N         4.47528066861935    8.71506039558915    5.12711352203137
Cl        2.10962456839443   10.02324795833721    3.87540906539226
Fe        4.04203720030319    9.18038735906658    3.35796083171873

