51
CSD_code = KETMIF | q = 0 | S = 0 | Stoichiometry = C30H10BClCuN7O | MND = 5
Cu       21.95958564969210    5.41011367009830    9.48512006207508
Cl       20.48425025533654    6.55897942506024    8.33957344579264
O        21.09648943085097    6.34482957477621   11.22102822906382
N        22.91782175644666    4.29232975656940    8.18949210434175
N        23.64547777622196    5.35138772035568   10.58255014633720
N        21.19695129263720    3.55749122248068   10.25443536525004
N        23.51325907609543    3.20897343453070    8.65942707725797
N        24.15428790620230    4.16593017746537   10.86098717940919
N        22.12848155983335    2.72905221379092   10.67913992080912
N        19.10000682296759    7.56925645128384   10.95971662952341
B        23.57420854704814    2.90968434781464   10.17321210196283
C        22.68692980777860    5.40923084345764    4.70180727803316
C        22.46688911277714    5.16237499067961    3.48977466469002
C        22.52774006245474    5.38197838912569    6.03770125034861
C        23.04672711738174    4.33175499900175    6.84988125159470
C        23.76230077908936    3.19607840880279    6.44668479628919
C        24.03934892975585    2.49398920176534    7.62037315554079
C        24.71750023621099    1.24876329894313    7.72986205320779
C        26.20952963886650    0.38566502180758    5.85952019036434
C        25.28088090292290    0.64742234570844    6.66080459097798
C        25.40663101662533    9.48708834394485   12.20866340851682
C        24.52976274899475    8.62796962098253   11.94736258903679
C        23.93322303903260    7.66969105982371   11.21213660536833
C        24.27388467655608    6.29017368592516   11.31549630452284
C        25.24798957790567    5.65842066137683   12.10036061866436
C        25.15256259724376    4.30138517604795   11.78480824509153
C        25.94425835360256    3.23713134941493   12.29600039701661
C        27.24758200556932    3.47703460604463   14.46580898537273
C        26.85293501742804    3.42407115151221   13.27610814003899
C        17.68930290490401    3.79956319804341   11.22795752843199
C        16.86279472644735    4.01583534831552   12.14491795933090
C        18.83461588736089    3.95351506439401   10.53508480907828
C        20.02738920776379    3.23649410713682   10.83977100924596
C        20.23632663808067    2.14417948872350   11.69567204406719
C        21.59333711574354    1.84018234465077   11.57364250277864
C        22.32391212357351    0.82548912404626   12.24667659825221
C        21.15020569227683   -1.12921412195211   13.37632675754103
C        21.73270863573879   -0.05994988428666   13.07700549219810
C        20.10986882437684    6.98534353647588   11.16388095694180
C        18.08250018087421    8.33491309662713   11.21275616552412
C        17.27507618457743    8.99679693450167   11.85900811139846
H        24.23122440909200    1.95989242306582   10.38969844830670
H        21.93084348491414    6.14507836305083    6.53148109270021
H        24.03377585510066    2.92470023637770    5.44694430908347
H        24.82387324782810    0.79256038947051    8.70525112643114
H        23.19690416492003    7.93400210945538   10.45838405112035
H        25.92843754718337    6.11669511350986   12.78817243217528
H        25.77558950975261    2.23652170907294   11.91903913084566
H        18.89942986783585    4.69212371670177    9.74143525759759
H        19.51341311138591    1.64332380687604   12.30579867987065
H        23.38297498672052    0.72900274716079   12.04315875067182

