65
CSD_code = KETMAZ | q = 1 | S = 0 | Stoichiometry = C25H27F3FeN5O3S(1+) | MND = 6
C         4.53937628956410    9.16546104639944    6.48645458030223
H         4.81357162247612    9.73558573116220    5.59741638057892
H         5.34325324277064    9.28852579938839    7.22427436371833
C         3.23296625328184    9.72693753395382    7.03454857387036
H         3.45080441650343   10.66721294012211    7.54247369345825
H         2.79643454626216    9.05186329404130    7.76820170598391
C         2.23005251565099   10.01149195505533    5.92460895896318
H         1.47451607710412   10.71529390934986    6.29554528965445
H         2.75932285614520   10.48805246353772    5.09743344166520
C         4.36782241025322    6.91116348009291    7.31536380285183
H         4.26709155421410    7.54071000009328    8.20424138897927
H         5.30684159709043    6.35856624701176    7.42999063948726
C         3.22771673082788    5.93530079175681    7.30879694242990
C         3.11862862175004    4.97079019286392    8.29959952486942
H         3.87249604499199    4.90333187292000    9.06836385318995
C         2.03739765362687    4.10466317173308    8.28482103101839
H         1.93258189685527    3.34200146282060    9.03955339636800
C         1.09720758028558    4.25133717013917    7.27623750551241
H         0.23324081957882    3.61169186539211    7.21446259200891
C         1.28134897735679    5.24100418500706    6.32835276741211
H         0.57213704318756    5.36978155935459    5.53124810380979
C         0.98685370322408    9.18548775583599    4.09344589456029
H         0.52315630070432   10.17930701978741    4.11853331829390
H         0.20634787456900    8.46328304644939    3.83736567587371
C         2.04797360272143    9.10316325687728    3.04272735745273
C         1.89428342291790    9.73534827496490    1.81627738109648
H         1.02196955018096   10.34264124751838    1.63770490764464
C         2.84383047111887    9.54305161645843    0.82848014137132
H         2.73872622957259   10.01055533642695   -0.13730984410265
C         3.92000816591618    8.71475219878375    1.10878321557167
H         4.67513426895098    8.50882559558860    0.36830318559822
C         4.00409727744529    8.13886845130026    2.36197034020828
H         4.81662025291611    7.47023608632804    2.59388400829994
C         5.55203897275794    7.36049827373904    5.27116744028042
H         6.48928848703590    7.34341024932159    5.84308136365578
H         5.65766119967197    8.10148399979369    4.47586579768685
C         5.26384023413055    6.02268673546913    4.65791839490208
C         6.23546875154098    5.06890281420764    4.40784939173786
H         7.26661766485579    5.26518631592387    4.65683041981959
C         5.85815594782502    3.86618634051115    3.82692021897457
H         6.59320775560667    3.10705497285408    3.61242191391892
C         4.51696488618271    3.66492011373944    3.54018342696624
H         4.17266634257381    2.74498167173438    3.09809979644277
C         3.60711668943932    4.66732007918796    3.83164643246996
H         2.55536538724496    4.55102094305656    3.62829957062612
C         0.45723563643276    8.40642944161602    6.29684190188497
H        -0.07412405436566    7.57745787725915    5.82336221092377
H         0.88583052150691    8.05905559392707    7.23928148936350
C        -0.50361056192051    9.46239947514460    6.57102983299948
C        -1.28106151901038   10.34430964914092    6.79650590788913
H        -1.98676552209857   11.09496596527557    6.99679127171510
C        -0.08734576114041    6.24646436534542    1.55877558339203
N         4.41409359728334    7.75725189011418    6.10821223001986
N         1.54668960347124    8.82185780282289    5.39785698070626
N         2.32704738264720    6.06692106010421    6.33123072648323
N         3.10722534906437    8.33580034545785    3.32460134458098
N         3.97254624742472    5.82752404553682    4.36571899452210
O         1.44856342135310    6.45165717204973    3.56427220491038
O        -0.89801809086249    6.51154787010102    4.07472923526450
O         0.18239947326704    4.39150238094489    3.44099916036701
F         1.01585142522131    5.89525094995249    0.89350565910280
F        -0.20889339482815    7.57681070449243    1.44996144477751
F        -1.13291400794253    5.68163983536771    0.97902077476675
S         0.13809636328609    5.81759396296904    3.36022685298220
Fe        2.78855170233311    7.22922054432847    4.89343790786636

