49
CSD_code = KETQIJ | q = 0 | S = 0 | Stoichiometry = C21H21MoO3P3 | MND = 6
Mo        3.59666652517866    2.90071109671190    0.80394957192332
P         3.20713073563036    4.15056282742165    2.79620581123916
P         5.60537935796904    2.01150267604302    1.70787603538539
P         2.36185365965601    1.05363465187213    1.64699581756427
O         5.15650594415539    5.34278280126287   -0.26183602495794
O         3.98448465578646    1.40253930104850   -1.86680870998469
O         1.01379374259356    4.07414699089248   -0.40806219779264
C         4.59190165002920    4.42581872038458    0.12355658158621
C         3.86278684387315    1.94081162141008   -0.86647699132352
C         1.96234920133926    3.63997932402397    0.05998600063964
C         1.77741605545676    5.23678916388760    2.63217669684125
C         0.52520732706899    4.83810608054866    3.08661664582806
C        -0.58332881016876    5.62502269836086    2.83246348937653
C        -0.44641765688986    6.80562833402460    2.12120679974929
C         0.79913403276586    7.20132492217132    1.65857094553206
C         1.90937971819035    6.41724305128751    1.90685334643530
C         6.28781610795048    2.98544688241951    3.06464533594756
C         7.18160684123737    4.01942223531772    2.80618887026174
C         7.59849316737696    4.84316752278989    3.83594001714530
C         7.12043082655205    4.64482103769683    5.12173909673544
C         6.21800757739792    3.62522031588187    5.38061797247363
C         5.79489935434340    2.80082239978603    4.35382773631316
C         1.93992560056782   -0.21330611296853    0.43526183845578
C         1.07731606991241    0.13532509301431   -0.60103871697776
C         0.79294990664644   -0.77634807384861   -1.59874343909279
C         1.37786738497318   -2.03348149900420   -1.57530966952158
C         2.24621445645222   -2.37870254819564   -0.55358470953837
C         2.53005940727244   -1.47172140498602    0.45197201932308
H         4.11629307419830    5.07802675456572    3.30269887833439
H         2.90813860560624    3.63633324013802    4.06001155983509
H         0.42763689235619    3.90796469513573    3.63439536212286
H        -1.55641439563509    5.31581338365540    3.18570011459305
H        -1.31410663995905    7.41630936079031    1.92028379785179
H         0.90086196805898    8.11868840820587    1.09764313076612
H         2.88671935943443    6.70495571200969    1.53648564819448
H         6.77213979697650    1.84303895178945    0.96653902076659
H         5.70012191032098    0.75051203113855    2.30550740376723
H         7.54202642251457    4.17100032751809    1.79612694904009
H         8.29723822350955    5.64249973761184    3.63691317896195
H         7.44932548113335    5.28876297627789    5.92386121372339
H         5.84448765219028    3.47530349164212    6.38329016443512
H         5.09132426877094    1.99708693176219    4.54360904913659
H         2.82020210060508    0.20583962740346    2.66126733667944
H         1.10539982181609    1.20313061034187    2.24037686137710
H         0.64013316500443    1.12723738262455   -0.61605025588552
H         0.12206148178326   -0.50671778943695   -2.40092969072947
H         1.16027222189729   -2.74311037163850   -2.35966132572712
H         2.70528648753170   -3.35649606305496   -0.54065281249639
H         3.21382241854268   -1.73364950772396    1.24959424584754

