66
CSD_code = KETROS | q = 0 | S = 0 | Stoichiometry = C25H31N7PtS2 | MND = 4
Pt        9.51300862944241    0.65317097611408    8.67662141362166
S         7.26819415043934    2.19140982840646   10.92644466680762
H         8.12279930114083    2.58224897937450    9.96457640507597
N         9.83138285719903    0.66414220299278    6.74963411146418
N         9.41556520750856    0.63229132248097   10.64148321643140
N         8.86149825787913    0.64396683373957    5.83105119283654
C        12.58636271171968    0.29778741285305   12.34485547853992
H        11.95530246281684    0.19648000791878   13.22235985358183
H        13.22349436617215    1.17185177008103   12.47362996443602
H        13.21331859490589   -0.58849983852523   12.26315999573907
N        11.51572404351588    0.64588546133120    8.73679811833622
C        11.08981222759218    0.69534234672253    6.39260419674274
C         7.28568004794715    1.04520312414475    1.95858911564217
H         8.11222317033476    1.33604361044057    1.32774416269396
N         6.55454665870340    0.50885959878338    5.53642521880765
H         5.69570578055387    0.39537385995794    6.05936956019499
C        13.41861357993507    0.69970891554393    7.30180860642923
H        13.83694612985731    0.74594032980334    6.31061712665201
N        10.43003727491913    0.46375427753254   11.44322527917741
C        11.68949750446902    0.44530162142865   11.14320448153379
C         4.23606185238855   -0.47371409487221   13.11759740589934
H         4.30991727423581   -1.41828541265508   13.66223383369631
H         3.31862208727022   -0.49768309734461   12.52566595923928
C         6.41206130056479    0.59179169514375    4.15459040311616
C         6.05088684034264    0.76055098389767    1.40351406731063
H         5.90396840968241    0.82178906430832    0.33597446800241
C         7.46605772294684    0.96321526853609    3.32605370053940
H         8.41822158421719    1.18998185538712    3.77349690260273
C         5.15270218461524    0.30699960056332    3.60166052972098
C         4.99899106737200    0.39760256843363    2.22756162292453
H         4.03428903006860    0.17743108750000    1.79345192333528
C        11.52338916990521    0.70351541515625    4.96165274595675
H        10.64985238091705    0.58137400317884    4.32736811303447
H        12.21939942434237   -0.11074063298314    4.76684877989529
H        12.01375446927232    1.64467586064751    4.71415892828211
C         7.64914134242574    0.56121745189266    6.31821058065490
C        12.04377255508736    0.68801357621333    7.48414870227365
C         8.20061050296207    0.67216541268942   11.33173523510571
C        14.24461429790150    0.64929427739923    8.42050522561640
H        15.31715065690647    0.66488773482430    8.29814332547031
C        12.29055615982100    0.55371119152561    9.83313058911756
C         5.43695399028353   -0.32331640052246   12.19256672171308
H         5.33386542747476    0.59448954500405   11.61179129064235
H         5.49078081129245   -1.15968531367205   11.49237458628890
C         6.73873349251831   -0.26867281161939   13.00164035072485
H         6.85000767479391   -1.21094712123656   13.55517816981652
C         4.18932880315995    0.68264656197186   14.11033485720733
H         4.06743008980039    1.62124911491284   13.56521527162638
H         3.33394774877249    0.56776148519855   14.78001581989331
C         7.98696782571379    0.93042572081852   14.83452959789019
H         8.09313735957000    0.01700179000931   15.41637669053370
H         7.97488514468296    1.77746146308416   15.51728549232723
H         8.85066746562491    1.01953531023011   14.17997265538815
C         5.47995244344612    0.73311275492006   14.92080013180004
H         5.58033010694428   -0.18815589517128   15.50062080387200
H         5.44501311219574    1.56804520299179   15.62427440821484
C        13.69211303021045    0.56586321666923    9.67655625118475
H        14.32723575144491    0.51205200493913   10.54324294698288
N         7.89543195481512   -0.20633811721016   12.15657843538995
C         3.99369981905124   -0.09008046114649    4.46936427726211
H         3.72278013325255    0.71415529186213    5.15521854822058
H         4.22783084968274   -0.97963945698654    5.05469948163824
H         3.12512059519517   -0.31034028976213    3.85444103501822
C         6.70037766977304    0.88938875343879   14.01443146821550
H         6.60615482861212    1.82683011719138   13.45678919215745
S         7.28242060139806    0.48940108352875    8.02329630947155

