47
CSD_code = KETRAC | q = 0 | S = 0 | Stoichiometry = C21H20CrO3S2 | MND = 9
Cr       -3.02426428383922   -0.65778866529110    6.28476633906287
S        -7.39343290164368    0.04031109707974    6.47008322378577
S        -0.47154187385029    5.02825729044485    7.49250778691234
O        -3.37068858999637   -2.23336244176059    8.78530790324457
O        -0.41892793229435   -2.07966890965282    6.48946242998388
O        -3.76324636581638   -3.30782885884952    5.14409900309143
C        -6.49416762787724    2.62331850235666    6.85083563607384
C        -5.46232017804729    3.51298607575054    7.48082339607042
C        -5.57856998943846    3.93152429715733    8.79997041687262
C        -4.49706855993784    4.50189360078915    9.44994515158719
C        -3.25935936935549    4.55213373441126    8.83181059714853
C        -3.12629259793698    4.15049018203560    7.50999574652674
C        -1.78647214359229    3.90961228000105    6.87606074118474
C        -4.25607676275899    3.72163050845674    6.82010639635193
C        -1.35285141397957    2.44319969993820    7.16334642651077
C        -2.36250859375749    1.52583240087606    6.53693720693447
C        -2.26306186787580    1.17241277958454    5.17531287247902
C        -3.36413345015637    0.65782279755303    4.48616038784283
C        -4.61416573077243    0.57372755672878    5.13383856093283
C        -4.73878873598194    0.89610879611656    6.48421382964559
C        -6.07798710932769    1.14953274624658    7.11486175537349
C        -3.57100373391467    1.25793225234131    7.20630360061613
C        -6.86395320413415   -1.50543037628710    7.25328726933875
C        -1.13013948311788    6.59027274899782    6.84916885982472
C        -3.25981192020924   -1.59246437472558    7.82850271931154
C        -1.40553854024060   -1.48864143356876    6.38654050280310
C        -3.50423314558788   -2.25669029511384    5.54705663333698
H        -6.55598410433587    2.78234342094162    5.77262881320244
H        -7.48113381137440    2.78619395299581    7.28422638121763
H        -6.51195697657916    3.79153181351359    9.32514220379954
H        -4.60027147233621    4.84376692563999   10.46872050318089
H        -2.38981727512178    4.88553702452916    9.37851634840700
H        -1.84004230622471    4.05899499857682    5.79177454542378
H        -4.17626865857117    3.47329601509635    5.76898837469661
H        -1.30223226973645    2.30279895771500    8.24465028190567
H        -0.35564770937280    2.28798801515454    6.74793912870114
H        -1.34727838125660    1.39510188241156    4.63838856713881
H        -3.29812472821567    0.45814870126827    3.42358724886249
H        -5.50437134248247    0.33832502820065    4.56054999385980
H        -6.03280843514052    0.98311452153063    8.19621581227085
H        -3.66730316130464    1.53478077293730    8.25098381230083
H        -7.56051587353209   -2.27020601862422    6.92652290237476
H        -5.85295166920362   -1.75685355123880    6.93397485419020
H        -6.91063321176998   -1.39851772618505    8.33363854498609
H        -0.45132566671842    7.37222170669558    7.17243005371800
H        -1.16369799993919    6.55253911947727    5.76356763678606
H        -2.12202884134111    6.76147044774849    7.25854860012957

