91
CSD_code = KETVAH | q = 0 | S = 0 | Stoichiometry = C34H53N3Zr | MND = 9
Zr        3.19852164926205    3.77753925306818    3.16864458691618
N         1.75184738793701    2.63409448084675    4.00107893192332
N         5.05761024094104    3.02488170215903    3.65306367410584
N         3.40494668119431    3.22173384703874    0.22944394826118
C         3.56647505527291    1.50143515912996    5.34651055179345
H         4.33764927977713    1.14885973591102    4.65304708133219
H         3.53739712522934    0.80343864912467    6.18835867929339
C         4.03848482387336    2.86696095857658    5.88094893759875
C         5.16412344365503    2.70147472280402    6.88168320605846
H         5.14397649969635    1.92996559176770    7.63382510279860
C         6.10315237797819    3.62738798325770    6.74956079125362
C         5.77851922528497    4.55785477178310    5.60384090266407
H         6.66303131095824    4.84800175450921    5.04318480170497
H         5.33963009324313    5.47674920338487    6.01411042198348
C         4.74951806933619    3.75124133737744    4.80168017508743
C         2.17375295246813    1.40256522572594    4.64341023317198
H         1.44152050914337    1.12173946388826    5.42396355282074
C         2.88813014926889    3.59735610535613    6.59372189238097
H         2.52889966374449    2.98921239365647    7.42357532921000
H         3.23414276689003    4.54753035201670    6.99825303333387
H         2.07185283039354    3.75906414226717    5.88820968984736
C         7.32787043895892    3.82547320852169    7.57474942111705
H         8.22111406956932    3.72981753379486    6.95703209742542
H         7.33270437156648    4.82421191257173    8.01197309032425
H         7.37705029338148    3.09149397509550    8.37530981954885
C         2.28950472077307    0.24101112573884    3.66786017078895
C         1.71981623097505   -0.99832352219290    3.92313126736912
H         1.16376107393107   -1.15664157127116    4.83766937688324
C         1.85894060925692   -2.03617834836336    3.01546929053855
H         1.40691110310551   -2.99591117822696    3.22190991832567
C         2.57909346226507   -1.84514542464558    1.85002012267719
H         2.69210887020062   -2.65574742332186    1.14485296973613
C         3.15530306981860   -0.60995376252547    1.59033679001415
H         3.72227441131731   -0.46100646807802    0.68375505151997
C         3.00786503636900    0.42988602463966    2.48926764725768
H         3.43820443281855    1.41799900434830    2.29275934894587
C         0.42031278483635    2.65612941236130    3.42452660301284
H         0.15354156750523    3.72674831550567    3.34083369591034
C         0.33516778005005    2.08447160139606    1.98634997897978
H        -0.61669134818607    2.36459281606532    1.53597863557528
H         1.15106830382748    2.49096786796571    1.37956963618258
H         0.40449906138969    0.99840718059250    1.99317993694612
C        -0.66936571742037    1.99280773621592    4.28754948981937
H        -0.61167453530434    2.34901231136754    5.31465220518843
H        -1.65034705639294    2.24325103330791    3.88987983397922
H        -0.56443220036135    0.91054848198473    4.27878534494484
C         6.27193314043691    3.17478547309840    2.86970770702983
C         6.42224156513880    4.57498158876651    2.22825217495887
H         7.36063724581868    4.62803852536291    1.67784542587504
H         5.59824536301292    4.74251810767612    1.52893027731307
H         6.41887141785989    5.36437369090882    2.97896617587569
C         6.15627379671328    2.14929921046880    1.72440225815567
H         5.25369976119306    2.34629954332359    1.14392212467599
H         7.02430885269121    2.21229849731644    1.06990688902962
H         6.10050575568574    1.14379878875154    2.13773010674556
C         7.53559909350196    2.81699599108591    3.69038770112205
H         7.25863710447110    2.17627680929680    4.52424352475833
H         8.24762545882678    2.28250334863547    3.06589943906437
H         8.03901465831829    3.69739387447698    4.07977749222738
C         3.20012288352757    4.20629224824834    1.00124762425223
C         3.46035459472807    3.12131099211185   -1.23171892541229
C         2.13212369750343    3.46421230648978   -1.92207218483500
H         2.15210520552968    3.10659125833041   -2.95042245988265
H         1.31032075447602    2.97316416602131   -1.40301291580655
H         1.94332286555517    4.53341777248807   -1.94397573696266
C         4.60776107085781    3.96815392389172   -1.80099276102375
H         4.44755728226059    5.02973154321575   -1.63200663552704
H         5.54518786555445    3.68557316772067   -1.32582165309046
H         4.69574435564910    3.80028272183407   -2.87279045607375
C         3.76251714764302    1.63931812234075   -1.51073917080011
H         4.68694118465511    1.34687100936313   -1.01858874880858
H         2.95373536321061    1.02294808065900   -1.12528553396521
H         3.86351498726376    1.46148944635474   -2.57936740847639
C         3.39740873481559    6.01642670716858    3.83769593827865
H         4.00765556687147    6.30508322987572    2.98109567207662
H         3.76874088250866    6.40077589062488    4.78200768551896
C         1.99313259152053    5.97236975566826    3.69869941849603
C         1.19481926338236    5.94784158253055    2.50636492251230
H         0.13542110571812    6.07024300891588    2.72887723705860
C         1.46730808252675    5.91304797770161    1.16887460944579
C         2.80905769936807    5.65105869602777    0.55873557485580
H         2.74863081356895    5.77734663387185   -0.52509460598707
H         3.56953490229112    6.35078049778177    0.92911871533859
C         1.17109658524705    6.14888648690862    4.96267086789490
H         0.46480263362646    5.32865697676565    5.10935216644550
H         1.80499775707759    6.22256617730354    5.84390285182788
H         0.58765081879474    7.07068885868317    4.89498762769913
C         0.32098789723526    5.94988991147596    0.19584681211580
H         0.19892685317404    4.98115545571533   -0.29283141145096
H        -0.61398758969829    6.19556581259861    0.69465676395064
H         0.49682996059450    6.69358745582292   -0.58340244284989

