57
CSD_code = KETWUD | q = 0 | S = 0 | Stoichiometry = C22H24N8NiO2 | MND = 4
C         2.49593240837635    7.61046783138257   -2.29423932991545
C         2.38164742793715    7.68147298998796   -3.71028933328730
H         1.78091184236531    6.92748449524757   -4.19441431273782
C         3.01137988255430    8.65576391458929   -4.42971852549767
H         2.91120274378725    8.67744531552108   -5.50570547070345
C         3.79055821541695    9.64124787313167   -3.79925132133223
C         3.92498095317278    9.60160961392625   -2.43330504416190
H         4.52540775024436   10.34669283069127   -1.92595474831861
C         3.29732538353164    8.61106823625941   -1.65922935793945
C         4.51129627363375   10.68954862163801   -4.60775581398547
H         4.32198577816085   11.69030662623224   -4.19375895757421
H         4.17867435424127   10.67485459639251   -5.64717531983835
C         3.49078675007975    8.58930729199996   -0.25497089482474
H         4.19624361217229    9.32851145991743    0.11761600379051
C         3.31852062316803    7.79600471464312    1.99619522649595
C         4.50234685024610    6.82198956819755    2.12025718929441
H         4.18732908203390    5.81566743076447    1.84230726016067
H         4.89779404200918    6.81158536431349    3.13130584612437
H         5.29578375348461    7.12748464220582    1.44103557702683
C         3.74631796419921    9.18565776841727    2.48498359245176
H         4.76398912844772    9.40847342390559    2.17394809158658
H         3.72900025548291    9.22221086028870    3.57014008613553
H         3.08243117492872    9.95756075930991    2.10411427725437
C         2.08229191882636    7.25784704148517    2.78648288547968
C         2.45681692342433    6.84291106459563    4.21514495396888
H         1.57365624292510    6.78814130470185    4.84693887200123
H         3.12052487627706    7.57958956319383    4.65782952433524
H         2.95789595032427    5.87844413570725    4.22408460673513
C         0.97095824692818    8.32006999275983    2.83444537685838
H         0.75167218559596    8.67520805630869    1.82725155551169
H         1.25755640804963    9.15935392062039    3.46078384956887
H         0.06387230247784    7.87793409339108    3.24181371058016
C         0.86067501521257    5.21352847598148    2.56320647264185
H         0.74081184878129    5.23462724703688    3.64403438887648
C         0.21709590178695    4.12908495300521    1.91698705751189
C         0.21455318243710    4.03719769257230    0.49009010901921
C        -0.44711589760316    2.91473403795560   -0.08028636175459
H        -0.44741302841047    2.83641274632675   -1.15617417401045
C        -1.05118920956614    1.97072997520548    0.69874034621965
H        -1.54012487625170    1.12591565797462    0.23367910390644
C        -1.05766419036165    2.07485630548558    2.10084074328865
C        -0.43350724097475    3.14722849362472    2.68521352234747
H        -0.42672437266874    3.24671043603138    3.76290410596428
C        -1.74771761078659    1.01846324773974    2.93149765867842
H        -2.74879130490193    1.35528476966879    3.22294483446527
H        -1.85997779733256    0.09792170933391    2.34299297101523
N         2.92063870022585    7.77895243607826    0.57798314102677
N         1.55360732337969    6.14146643613568    1.98357971628150
N         5.93145656987201   10.45782858835618   -4.64871658773850
N         6.66889172844225   10.31088851497595   -3.73357264374324
N         7.52930527473145   10.14942794438715   -3.02601188176156
N        -1.07212782106510    0.72369154927902    4.16099742039692
N         0.07742664130617    0.49210143314397    4.33281507179302
N         1.10481222908881    0.26360701914962    4.72954195312865
O         1.91018183596784    6.67187279644411   -1.66053400286238
O         0.75548098160670    4.90465595972570   -0.27262525499673
Ni        1.78552481258293    6.37519617265951    0.15966223506076

