41
CSD_code = KEVGEY | q = 0 | S = 0 | Stoichiometry = C17H19ClNOPPd | MND = 4
Pd        5.49183777881986    6.07235607667972    8.93745991691819
Cl        3.91356745520176    7.63156686481970    9.10191878408811
P         7.40562888204544    4.90281515227677    8.65400804087137
O         9.03750063868159    7.77888042430832   10.75598481974132
N         6.96762519521074    7.39712913708710   10.03310734467731
C         6.95132694726249    8.80194768511410   10.38110231648105
H         6.19391372550020    8.97717875341346   11.14916729451187
H         6.68326236620566    9.39018401824744    9.49940499044584
C         8.39606127701433    9.05446862049721   10.87369206748347
H         8.94201688253239    9.77042853188915   10.25476321051463
H         8.44428431804070    9.36751975501955   11.91916216426626
C         8.12244330601025    6.92299724179005   10.26919896825006
C         8.51027468455200    5.50812507093331   10.03193189879079
H         8.29522509573020    4.92589964557704   10.93412102289880
H         9.57686586703364    5.44008366539954    9.80084146671519
C         7.93057003713154    3.18285377645985    8.39090839529467
C         8.73202401373523    2.44767879637050    9.25549176237256
H         9.12430368917198    2.89444523015343   10.15708811552069
C         9.03589624148504    1.12935556649534    8.95978124250725
H         9.66346175850229    0.56221755928082    9.63174982372621
C         8.53899641948568    0.53681229722549    7.81153990024587
H         8.77950333549886   -0.49183308335212    7.58838453503818
C         7.72689112687127    1.26208122315676    6.95278902822049
H         7.33227409007704    0.79900849184152    6.06075758071135
C         7.41949137035974    2.57611114628221    7.24433621821712
H         6.77986898218722    3.15522422203471    6.58972570197402
C         8.21111336301589    5.74704329579062    7.24744299171816
C         7.53191288965717    6.80138093727884    6.64096399299219
H         6.52334875989723    7.06621081406904    6.99023180469852
C         8.12246204565159    7.49830250413482    5.60137924736517
H         7.59527143563422    8.31579219938780    5.13249078764371
C         9.38679343636999    7.14273047772400    5.15940996030844
H         9.84656303636392    7.68524134595398    4.34671555445465
C        10.06085049921217    6.08734006090129    5.75347886506371
H        11.04344184333381    5.80768248905591    5.40260335810902
C         9.47740107121107    5.38951400104780    6.79512824995900
H         9.99766274942606    4.55934446499406    7.25392879888954
C         4.17512638211494    4.82613501402333    7.99156370259168
H         3.14368114048974    5.09659790251370    8.22972615871134
H         4.36449872840375    3.78976722839373    8.30130324413889
H         4.32815713487077    4.92028139574055    6.90671667287553

