57
CSD_code = KEVKUR | q = 0 | S = 0 | Stoichiometry = C18H33BN4Zn | MND = 3
Zn        2.10265457233989    4.80697279066817   12.53430472265006
C         2.03435709619868    4.07854427785704   14.44725549036780
C         0.96948075788446    4.86619983331966   15.21883668783905
C         1.68459510360791    2.58836186383410   14.53147229042255
C         3.37471250992889    4.28929022428021   15.16017059332864
N         0.85759822529610    6.80621569228307   11.04456079201933
N         0.58832469472086    5.52431418946713   11.29962711070363
N         3.30480558404852    6.77500885244333   10.97338254471425
N         3.58141620492326    5.49769784711156   11.24339930209101
C        -0.03707967914183    7.28920939324881   10.18634913970585
C        -0.93003188590111    6.28145012968578    9.86859030583916
C        -0.49215648806014    5.17393112867906   10.59503401018071
C        -1.07794146304329    3.79037280197853   10.67136201939640
C        -1.70183782832726    3.59931746917485   12.05947594016723
C         0.02728767798359    2.75047029356087   10.45673362627473
C        -2.15629308150416    3.60694127455493    9.60055890362077
C         4.14177128847340    7.22669764526153   10.04298909881959
C         5.00305232341431    6.20265791233421    9.69180773438988
C         4.60838351770575    5.11871320506125   10.47636189800335
C         5.20031181441905    3.73825642699578   10.56015541308109
C         5.95879475663178    3.61873007853576   11.88828227144405
C         4.08568140407945    2.68800525982098   10.50883059112067
C         6.16784533881415    3.50061451406302    9.39793357946282
B         2.10842329645066    7.47698099028264   11.64474483803254
H        -0.02151689802152    4.72399036744046   14.79224568741860
H         1.19087414563633    5.93213347556867   15.21486283938321
H         0.93789115239854    4.53228171785492   16.25928616812417
H         2.43258981740945    1.97594376334640   14.03047793651332
H         0.71543779033760    2.37892963928808   14.08313096955685
H         1.64305357309104    2.27685619874089   15.57830315580928
H         4.15890917600155    3.67798171438603   14.71798455890247
H         3.28494813466722    4.00484044909718   16.21185207839586
H         3.68605345442019    5.33137164109324   15.11905307913748
H         0.00095537627480    8.30680680983082    9.85279779412229
H        -1.76887815369258    6.35028493723201    9.20766166403210
H        -2.12349090759004    2.60049986638927   12.15097496123076
H        -2.49403431840254    4.32688611889306   12.22255251021445
H        -0.94672694263289    3.73398609968924   12.83041116665524
H        -0.38797881458538    1.74567935427179   10.49724253757736
H         0.79172045116753    2.84019792675013   11.22992801924123
H         0.49779354832280    2.89213075715235    9.48618483412417
H        -2.55337104026748    2.59503740573769    9.64422972717013
H        -1.74413288155699    3.77216206592993    8.60779205484671
H        -2.97761206491273    4.30153160516314    9.75738753774772
H         4.08835560844542    8.23544115168323    9.68548890920989
H         5.79456623436218    6.24614795104386    8.97287571720865
H         6.38558784377920    2.62344475945244   11.99276137404659
H         5.28455499066275    3.80267954367466   12.72141589865137
H         6.76448808045905    4.34831461978969   11.93153463978893
H         3.40923121562026    2.80649973713216   11.35699956300913
H         4.51056102679557    1.68705713215190   10.54556016932281
H         3.51146768914441    2.78710966278706    9.59032612875760
H         6.56512347412601    2.48906773214402    9.44738960877775
H         7.00238757870848    4.19559741543562    9.44224135798297
H         5.66039851589975    3.62494520800857    8.44406764574897
H         2.11529570928466    8.63177995284304   11.38073496676505
H         2.14194169368772    7.23212912541423   12.82592583684900

